(PID.TID 0000.0001) 
(PID.TID 0000.0001) // ======================================================
(PID.TID 0000.0001) //                      MITgcm UV
(PID.TID 0000.0001) //                      =========
(PID.TID 0000.0001) // ======================================================
(PID.TID 0000.0001) // execution environment starting up...
(PID.TID 0000.0001) 
(PID.TID 0000.0001) // MITgcmUV version:  checkpoint67b
(PID.TID 0000.0001) // Build user:        dannes
(PID.TID 0000.0001) // Build host:        eslogin005
(PID.TID 0000.0001) // Build date:        Sat Jun  2 20:28:28 BST 2018
(PID.TID 0000.0001) 
(PID.TID 0000.0001) // =======================================================
(PID.TID 0000.0001) // Execution Environment parameter file "eedata"
(PID.TID 0000.0001) // =======================================================
(PID.TID 0000.0001) ># Example "eedata" file
(PID.TID 0000.0001) ># Lines beginning "#" are comments
(PID.TID 0000.0001) ># nTx - No. threads per process in X
(PID.TID 0000.0001) ># nTy - No. threads per process in Y
(PID.TID 0000.0001) > &EEPARMS
(PID.TID 0000.0001) > nTx=1,
(PID.TID 0000.0001) > nTy=1,
(PID.TID 0000.0001) > &
(PID.TID 0000.0001) ># Note: Some systems use & as the
(PID.TID 0000.0001) ># namelist terminator. Other systems
(PID.TID 0000.0001) ># use a / character (as shown here).
(PID.TID 0000.0001) 
(PID.TID 0000.0001) // =======================================================
(PID.TID 0000.0001) // Computational Grid Specification ( see files "SIZE.h" )
(PID.TID 0000.0001) //                                  ( and "eedata"       )
(PID.TID 0000.0001) // =======================================================
(PID.TID 0000.0001)      nPx =    8 ; /* No. processes in X */
(PID.TID 0000.0001)      nPy =    4 ; /* No. processes in Y */
(PID.TID 0000.0001)      nSx =    1 ; /* No. tiles in X per process */
(PID.TID 0000.0001)      nSy =    1 ; /* No. tiles in Y per process */
(PID.TID 0000.0001)      sNx =   16 ; /* Tile size in X */
(PID.TID 0000.0001)      sNy =   16 ; /* Tile size in Y */
(PID.TID 0000.0001)      OLx =    4 ; /* Tile overlap distance in X */
(PID.TID 0000.0001)      OLy =    4 ; /* Tile overlap distance in Y */
(PID.TID 0000.0001)      nTx =    1 ; /* No. threads in X per process */
(PID.TID 0000.0001)      nTy =    1 ; /* No. threads in Y per process */
(PID.TID 0000.0001)       Nr =   23 ; /* No. levels in the vertical   */
(PID.TID 0000.0001)       Nx =  128 ; /* Total domain size in X ( = nPx*nSx*sNx ) */
(PID.TID 0000.0001)       Ny =   64 ; /* Total domain size in Y ( = nPy*nSy*sNy ) */
(PID.TID 0000.0001)   nTiles =    1 ; /* Total no. tiles per process ( = nSx*nSy ) */
(PID.TID 0000.0001)   nProcs =   32 ; /* Total no. processes ( = nPx*nPy ) */
(PID.TID 0000.0001) nThreads =    1 ; /* Total no. threads per process ( = nTx*nTy ) */
(PID.TID 0000.0001) usingMPI =    T ; /* Flag used to control whether MPI is in use */
(PID.TID 0000.0001)                   /*  note: To execute a program with MPI calls */
(PID.TID 0000.0001)                   /*  it must be launched appropriately e.g     */
(PID.TID 0000.0001)                   /*  "mpirun -np 64 ......"                    */
(PID.TID 0000.0001) useCoupler=    F ;/* Flag used to control communications with   */
(PID.TID 0000.0001)                   /*  other model components, through a coupler */
(PID.TID 0000.0001) debugMode =    F ; /* print debug msg. (sequence of S/R calls)  */
(PID.TID 0000.0001) printMapIncludesZeros=    F ; /* print zeros in Std.Output maps */
(PID.TID 0000.0001) maxLengthPrt1D=   65 /* maxLength of 1D array printed to StdOut */
(PID.TID 0000.0001) 
(PID.TID 0000.0001) ======= Starting MPI parallel Run =========
(PID.TID 0000.0001)  My Processor Name (len:  8 ) = nid02692
(PID.TID 0000.0001)  Located at (  0,  0) on processor grid (0:  7,0:  3)
(PID.TID 0000.0001)  Origin at  (     1,     1) on global grid (1:   128,1:    64)
(PID.TID 0000.0001)  North neighbor = processor 0001
(PID.TID 0000.0001)  South neighbor = processor 0003
(PID.TID 0000.0001)   East neighbor = processor 0004
(PID.TID 0000.0001)   West neighbor = processor 0028
(PID.TID 0000.0001) // ======================================================
(PID.TID 0000.0001) // Mapping of tiles to threads
(PID.TID 0000.0001) // ======================================================
(PID.TID 0000.0001) // -o- Thread   1, tiles (   1:   1,   1:   1)
(PID.TID 0000.0001) 
(PID.TID 0000.0001) // ======================================================
(PID.TID 0000.0001) // Tile <-> Tile connectvity table
(PID.TID 0000.0001) // ======================================================
(PID.TID 0000.0001) // Tile number: 000001 (process no. = 000000)
(PID.TID 0000.0001) //        WEST: Tile = 000008, Process = 000028, Comm = messages
(PID.TID 0000.0001) //                bi = 000001, bj = 000001
(PID.TID 0000.0001) //        EAST: Tile = 000002, Process = 000004, Comm = messages
(PID.TID 0000.0001) //                bi = 000001, bj = 000001
(PID.TID 0000.0001) //       SOUTH: Tile = 000025, Process = 000003, Comm = messages
(PID.TID 0000.0001) //                bi = 000001, bj = 000001
(PID.TID 0000.0001) //       NORTH: Tile = 000009, Process = 000001, Comm = messages
(PID.TID 0000.0001) //                bi = 000001, bj = 000001
(PID.TID 0000.0001) 
(PID.TID 0000.0001)  INI_PARMS: opening model parameter file "data"
(PID.TID 0000.0001)  OPEN_COPY_DATA_FILE: opening file data
(PID.TID 0000.0001) // =======================================================
(PID.TID 0000.0001) // Parameter file "data"
(PID.TID 0000.0001) // =======================================================
(PID.TID 0000.0001) ># ====================
(PID.TID 0000.0001) ># | Model parameters |
(PID.TID 0000.0001) ># ====================
(PID.TID 0000.0001) >#
(PID.TID 0000.0001) ># PARM01: Continuous equation parameters
(PID.TID 0000.0001) > &PARM01
(PID.TID 0000.0001) ># The tRef and sRef increased vertical resolutions(Dec 21st, 2017)
(PID.TID 0000.0001) ># (revisit the settings)
(PID.TID 0000.0001) ># ----------
(PID.TID 0000.0001) > tRef = 23*20.,
(PID.TID 0000.0001) > sRef = 23*35.,
(PID.TID 0000.0001) > viscA4 = 0.,
(PID.TID 0000.0001) > viscAh = 2.E5,
(PID.TID 0000.0001) > diffKhT = 0.E3,
(PID.TID 0000.0001) > diffKhS = 0.E3,
(PID.TID 0000.0001) > viscAz = 1.E-3,
(PID.TID 0000.0001) >#-- diffKzT = 3.E-5,
(PID.TID 0000.0001) >#-- diffKzS = 3.E-5,
(PID.TID 0000.0001) > diffKrBL79surf = 3.E-5,
(PID.TID 0000.0001) > diffKrBL79deep = 13.E-5,
(PID.TID 0000.0001) > diffKrBL79Ho = -2000.,
(PID.TID 0000.0001) > diffKrBL79scl = 150.,
(PID.TID 0000.0001) > gravity = 9.81,
(PID.TID 0000.0001) > rhoConst = 1035.,
(PID.TID 0000.0001) > rhoConstFresh = 1000.,
(PID.TID 0000.0001) > implicitFreeSurface =.TRUE.,
(PID.TID 0000.0001) > eosType ='JMD95Z',
(PID.TID 0000.0001) > implicitDiffusion =.TRUE.,
(PID.TID 0000.0001) > implicitViscosity =.TRUE.,
(PID.TID 0000.0001) >#-- ivdc_kappa = 100.,
(PID.TID 0000.0001) ># Changed the advection scheme(Sep 6th, 2013)
(PID.TID 0000.0001) ># '77' is second-order flux limiters (non-linear)
(PID.TID 0000.0001) ># ----------
(PID.TID 0000.0001) > tempAdvScheme = 77,
(PID.TID 0000.0001) > saltAdvScheme = 77,
(PID.TID 0000.0001) > allowFreezing =.TRUE.,
(PID.TID 0000.0001) ># Turn on looped cells
(PID.TID 0000.0001) ># ----------
(PID.TID 0000.0001) > hFacMin =.1,
(PID.TID 0000.0001) > hFacMindz = 50.,
(PID.TID 0000.0001) > useCDscheme =.TRUE.,
(PID.TID 0000.0001) > useSinglecpuIO =.TRUE.,
(PID.TID 0000.0001) > staggerTimeStep =.TRUE.,
(PID.TID 0000.0001) > debugLevel = 0,
(PID.TID 0000.0001) > &
(PID.TID 0000.0001) >
(PID.TID 0000.0001) ># PARM02: Elliptic solver parameters
(PID.TID 0000.0001) ># ----------
(PID.TID 0000.0001) > &PARM02
(PID.TID 0000.0001) > cg2dMaxIters = 1000,
(PID.TID 0000.0001) > cg2dTargetResidual = 1.E-13,
(PID.TID 0000.0001) > &
(PID.TID 0000.0001) >
(PID.TID 0000.0001) ># PARM03: Time stepping parameters
(PID.TID 0000.0001) ># ----------
(PID.TID 0000.0001) > &PARM03
(PID.TID 0000.0001) > nIter0 = 3600000,
(PID.TID 0000.0001) >#nTimeSteps = 1440000,
(PID.TID 0000.0001) >#nTimeSteps = 73000,
(PID.TID 0000.0001) > nTimeSteps = 730,
(PID.TID 0000.0001) >#nTimeSteps = 2,
(PID.TID 0000.0001) ># ----------
(PID.TID 0000.0001) ># PARM03-1: Length of the simulation in time step(300 years + 1 month)
(PID.TID 0000.0001) ># nTimeSteps = 216060,
(PID.TID 0000.0001) ># PARM03-2: Length of the simulation in time step(1000 years)
(PID.TID 0000.0001) ># *nTimeSteps =  720000,
(PID.TID 0000.0001) ># *nTimeSteps = 1440000,
(PID.TID 0000.0001) ># ----------
(PID.TID 0000.0001) >
(PID.TID 0000.0001) ># Time increment is 900 seconds for physics
(PID.TID 0000.0001) ># ----------
(PID.TID 0000.0001) > deltaTmom = 900.,
(PID.TID 0000.0001) > tauCD = 321428.,
(PID.TID 0000.0001) ># Time increment is 12 hours for tracers
(PID.TID 0000.0001) ># ----------
(PID.TID 0000.0001) > deltaTtracer = 43200.,
(PID.TID 0000.0001) > deltaTClock = 43200.,
(PID.TID 0000.0001) > abEps = 0.1,
(PID.TID 0000.0001) ># ----------
(PID.TID 0000.0001) ># OUTPUT: frequency settings for sensitivity experiments
(PID.TID 0000.0001) ># pChkptFreq = 3110400000.,
(PID.TID 0000.0001) ># chkptFreq = 3110400000.,
(PID.TID 0000.0001) ># dumpFreq  = 311104000000.,
(PID.TID 0000.0001) >#
(PID.TID 0000.0001) ># taveFreq time average output frequency
(PID.TID 0000.0001) ># taveFreq has changed to 1 year output
(PID.TID 0000.0001) ># taveFreq  = 31104000.,
(PID.TID 0000.0001) ># ----------
(PID.TID 0000.0001) > pChkptFreq = 3110400000.,
(PID.TID 0000.0001) > chkptFreq  = 3110400000.,
(PID.TID 0000.0001) >#adjDumpFreq   = 311104000000.,
(PID.TID 0000.0001) >#dumpFreq   = 311104000000.,
(PID.TID 0000.0001) > adjDumpFreq   = 2628000.,
(PID.TID 0000.0001) > dumpFreq   = 2628000.,
(PID.TID 0000.0001) ># taveFreq has changed to 100 year output
(PID.TID 0000.0001) ># ----------
(PID.TID 0000.0001) >#taveFreq   = 3110400000.,
(PID.TID 0000.0001) ># Monitor frequency and relaxation timescale
(PID.TID 0000.0001) ># ----------
(PID.TID 0000.0001) > monitorFreq = 2628000.,
(PID.TID 0000.0001) > adjMonitorFreq = 2628000.,
(PID.TID 0000.0001) >#monitorFreq = 8640000.,
(PID.TID 0000.0001) > tauThetaClimRelax = 5184000.,
(PID.TID 0000.0001) > tauSaltClimRelax  = 7776000.,
(PID.TID 0000.0001) > periodicExternalForcing =.TRUE.,
(PID.TID 0000.0001) > externForcingPeriod = 2592000.,
(PID.TID 0000.0001) ># ----------
(PID.TID 0000.0001) ># externalForcingCycle the duration of the external forcing data cycle in seconds
(PID.TID 0000.0001) ># 300 years(9331200000) + 1 month(2592000)
(PID.TID 0000.0001) ># externForcingCycle = 9333792000.,
(PID.TID 0000.0001) ># 1 year (= 360 days)
(PID.TID 0000.0001) ># ----------
(PID.TID 0000.0001) > externForcingCycle = 31104000.,
(PID.TID 0000.0001) > pickupstrictlymatch =.False.,
(PID.TID 0000.0001) > &
(PID.TID 0000.0001) >
(PID.TID 0000.0001) ># PARM04: Gridding parameters
(PID.TID 0000.0001) ># ----------
(PID.TID 0000.0001) > &PARM04
(PID.TID 0000.0001) > usingSphericalPolarGrid =.TRUE.,
(PID.TID 0000.0001) ># Vertical resolution increased to 23(Sep 6th, 2013)
(PID.TID 0000.0001) ># ----------
(PID.TID 0000.0001) > delZ=10.,10.,15.,20.,20.,25.,35.,50.,75.,100.,150.,200.,275.,350.,415.,450.,500.,500.,500.,500.,500.,500.,500.,
(PID.TID 0000.0001) > ygOrigin = -90.,
(PID.TID 0000.0001) > delX = 128*2.8125,
(PID.TID 0000.0001) > delY = 64*2.8125,
(PID.TID 0000.0001) > &
(PID.TID 0000.0001) >
(PID.TID 0000.0001) ># PARM05: Input datasets
(PID.TID 0000.0001) ># ----------
(PID.TID 0000.0001) > &PARM05
(PID.TID 0000.0001) > bathyFile =      '../input/bathymetry/bathy.bin',
(PID.TID 0000.0001) > hydrogThetaFile ='../input/defaultfields/initial/lev_clim_temp_v3.bin',
(PID.TID 0000.0001) > hydrogSaltFile = '../input/defaultfields/initial/lev_clim_salt_v3.bin',
(PID.TID 0000.0001) > zonalWindFile =  '../input/defaultfields/atsocn/tren_mon_taux.bin',
(PID.TID 0000.0001) > meridWindFile =  '../input/defaultfields/atsocn/tren_mon_tauy.bin',
(PID.TID 0000.0001) > thetaClimFile =  '../input/defaultfields/atsocn/lev_mon_temp.bin',
(PID.TID 0000.0001) > saltClimFile =   '../input/pert_salt/southern_ocean/pert_so_salt_0.6.bin',
(PID.TID 0000.0001) > surfQFile =      '../input/defaultfields/atsocn/lshi_mon_qnet.bin',
(PID.TID 0000.0001) > EmPmRFile =      '../input/defaultfields/atsocn/lshi_mon_empmr.bin',
(PID.TID 0000.0001) > the_run_name =   'Global Biogeochemistry Model Spinup Base of Adjoint Study',
(PID.TID 0000.0001) > checkIniTemp= .False.,
(PID.TID 0000.0001) > checkIniSalt= .False.,
(PID.TID 0000.0001) > &
(PID.TID 0000.0001) 
(PID.TID 0000.0001)  INI_PARMS ; starts to read PARM01
(PID.TID 0000.0001)  INI_PARMS ; read PARM01 : OK
(PID.TID 0000.0001)  INI_PARMS ; starts to read PARM02
(PID.TID 0000.0001)  INI_PARMS ; read PARM02 : OK
(PID.TID 0000.0001)  INI_PARMS ; starts to read PARM03
(PID.TID 0000.0001)  INI_PARMS ; read PARM03 : OK
(PID.TID 0000.0001)  INI_PARMS ; starts to read PARM04
(PID.TID 0000.0001)  INI_PARMS ; read PARM04 : OK
(PID.TID 0000.0001)  INI_PARMS ; starts to read PARM05
(PID.TID 0000.0001)  INI_PARMS ; read PARM05 : OK
(PID.TID 0000.0001)  INI_PARMS: finished reading file "data"
(PID.TID 0000.0001)  PACKAGES_BOOT: opening data.pkg
(PID.TID 0000.0001)  OPEN_COPY_DATA_FILE: opening file data.pkg
(PID.TID 0000.0001) // =======================================================
(PID.TID 0000.0001) // Parameter file "data.pkg"
(PID.TID 0000.0001) // =======================================================
(PID.TID 0000.0001) ># Packages
(PID.TID 0000.0001) > &PACKAGES
(PID.TID 0000.0001) > useAUTODIFF=.TRUE.,
(PID.TID 0000.0001) > useECCO=.TRUE.,
(PID.TID 0000.0001) > useCTRL=.TRUE.,
(PID.TID 0000.0001) > useGMRedi=.TRUE.,
(PID.TID 0000.0001) > usePTRACERS=.TRUE.,
(PID.TID 0000.0001) > useGCHEM=.TRUE.,
(PID.TID 0000.0001) ># useMNC=.TRUE.,
(PID.TID 0000.0001) >#useDiagnostics=.FALSE.,
(PID.TID 0000.0001) > useKPP=.TRUE.,
(PID.TID 0000.0001) > &
(PID.TID 0000.0001) >
(PID.TID 0000.0001) 
(PID.TID 0000.0001)  PACKAGES_BOOT: finished reading data.pkg
(PID.TID 0000.0001)  PACKAGES_BOOT: On/Off package Summary
 --------  pkgs with a standard "usePKG" On/Off switch in "data.pkg":  --------
 pkg/kpp                  compiled   and   used ( useKPP                   = T )
 pkg/gmredi               compiled   and   used ( useGMRedi                = T )
 pkg/cal                  compiled   and   used ( useCAL                   = T )
 pkg/autodiff             compiled   and   used ( useAUTODIFF              = T )
 pkg/ecco                 compiled   and   used ( useECCO                  = T )
 pkg/ctrl                 compiled   and   used ( useCTRL                  = T )
 pkg/ptracers             compiled   and   used ( usePTRACERS              = T )
 pkg/gchem                compiled   and   used ( useGCHEM                 = T )
 -------- pkgs without standard "usePKG" On/Off switch in "data.pkg":  --------
 pkg/generic_advdiff      compiled   and   used ( useGAD                   = T )
 pkg/mom_common           compiled   and   used ( momStepping              = T )
 pkg/mom_vecinv           compiled but not used ( +vectorInvariantMomentum = F )
 pkg/mom_fluxform         compiled   and   used ( & not vectorInvariantMom = T )
 pkg/cd_code              compiled   and   used ( useCDscheme              = T )
 pkg/monitor              compiled   and   used ( monitorFreq > 0.         = T )
 pkg/debug                compiled but not used ( debugMode                = F )
 pkg/rw                   compiled   and   used
 pkg/mdsio                compiled   and   used
 pkg/autodiff             compiled   and   used
 pkg/cost                 compiled   and   used
(PID.TID 0000.0001)  PACKAGES_BOOT: End of package Summary
(PID.TID 0000.0001) 
(PID.TID 0000.0001) CAL_READPARMS: opening data.cal
(PID.TID 0000.0001)  OPEN_COPY_DATA_FILE: opening file data.cal
(PID.TID 0000.0001) // =======================================================
(PID.TID 0000.0001) // Parameter file "data.cal"
(PID.TID 0000.0001) // =======================================================
(PID.TID 0000.0001) >#
(PID.TID 0000.0001) ># *******************
(PID.TID 0000.0001) ># Calendar Parameters
(PID.TID 0000.0001) ># *******************
(PID.TID 0000.0001) > &CAL_NML
(PID.TID 0000.0001) > TheCalendar='gregorian',
(PID.TID 0000.0001) >#calendarDumps=.TRUE.,
(PID.TID 0000.0001) > calendarDumps=.FALSE.,
(PID.TID 0000.0001) ># TheCalendar='model',
(PID.TID 0000.0001) > startDate_1=19920101
(PID.TID 0000.0001) > startDate_2=120000,
(PID.TID 0000.0001) > &
(PID.TID 0000.0001) 
(PID.TID 0000.0001) CAL_READPARMS: finished reading data.cal
(PID.TID 0000.0001)  KPP_READPARMS: opening data.kpp
(PID.TID 0000.0001)  OPEN_COPY_DATA_FILE: opening file data.kpp
(PID.TID 0000.0001) // =======================================================
(PID.TID 0000.0001) // Parameter file "data.kpp"
(PID.TID 0000.0001) // =======================================================
(PID.TID 0000.0001) ># ***************
(PID.TID 0000.0001) ># Open boundaries
(PID.TID 0000.0001) ># ***************
(PID.TID 0000.0001) > &KPP_PARM01
(PID.TID 0000.0001) ># KPPwriteState   = .TRUE.,
(PID.TID 0000.0001) > &
(PID.TID 0000.0001) 
(PID.TID 0000.0001)  KPP_READPARMS ; starts to read KPP_PARM01
(PID.TID 0000.0001)  KPP_READPARMS ; read KPP_PARM01 : OK
(PID.TID 0000.0001)  KPP_READPARMS: finished reading data.kpp
(PID.TID 0000.0001)  GM_READPARMS: opening data.gmredi
(PID.TID 0000.0001)  OPEN_COPY_DATA_FILE: opening file data.gmredi
(PID.TID 0000.0001) // =======================================================
(PID.TID 0000.0001) // Parameter file "data.gmredi"
(PID.TID 0000.0001) // =======================================================
(PID.TID 0000.0001) ># from MOM
(PID.TID 0000.0001) ># GM_background_K: 	isopycnal diffusion coefficient
(PID.TID 0000.0001) ># GM_maxSlope:		max slope of isopycnals
(PID.TID 0000.0001) ># GM_Scrit:		transition for scaling diffusion coefficient
(PID.TID 0000.0001) ># GM_Sd:		half width scaling for diffusion coefficient
(PID.TID 0000.0001) ># real background diff:	horizontal diffusion
(PID.TID 0000.0001) >
(PID.TID 0000.0001) ># ifdef GM_VISBECK_VARIABLE_K, include following in GM_PARM01
(PID.TID 0000.0001) ># GM_Visbeck_alpha   = 0.,
(PID.TID 0000.0001) ># GM_Visbeck_length  = 2.e+5,
(PID.TID 0000.0001) ># GM_Visbeck_depth   = 1.e+3,
(PID.TID 0000.0001) ># GM_Visbeck_maxval_K= 2.5e+3,
(PID.TID 0000.0001) >
(PID.TID 0000.0001) > &GM_PARM01
(PID.TID 0000.0001) >  GM_background_K    = 1.e+3,
(PID.TID 0000.0001) >  GM_taper_scheme    = 'gkw91',
(PID.TID 0000.0001) >  GM_maxSlope        = 1.e-2,
(PID.TID 0000.0001) >  GM_Kmin_horiz      = 100.,
(PID.TID 0000.0001) >  GM_Scrit           = 4.e-3,
(PID.TID 0000.0001) >  GM_Sd              = 1.e-3,
(PID.TID 0000.0001) > &
(PID.TID 0000.0001) >
(PID.TID 0000.0001) >
(PID.TID 0000.0001) 
(PID.TID 0000.0001)  GM_READPARMS: finished reading data.gmredi
(PID.TID 0000.0001)  PTRACERS_READPARMS: opening data.ptracers
(PID.TID 0000.0001)  OPEN_COPY_DATA_FILE: opening file data.ptracers
(PID.TID 0000.0001) // =======================================================
(PID.TID 0000.0001) // Parameter file "data.ptracers"
(PID.TID 0000.0001) // =======================================================
(PID.TID 0000.0001) > &PTRACERS_PARM01
(PID.TID 0000.0001) > PTRACERS_numInUse = 9,
(PID.TID 0000.0001) > PTRACERS_Iter0 = 3600000,
(PID.TID 0000.0001) ># Tracer #1 - DIC
(PID.TID 0000.0001) > PTRACERS_names(1) ='dic',
(PID.TID 0000.0001) > PTRACERS_long_names(1) ='Dissolved Inorganic Carbon',
(PID.TID 0000.0001) > PTRACERS_units(1) ='mol C/m^3',
(PID.TID 0000.0001) > PTRACERS_advScheme(1) =77,
(PID.TID 0000.0001) > PTRACERS_diffKh(1) = 0.E3,
(PID.TID 0000.0001) > PTRACERS_diffKr(1) = 3.E-5,
(PID.TID 0000.0001) > PTRACERS_useGMRedi(1) =.TRUE. ,
(PID.TID 0000.0001) > PTRACERS_useKPP(1) =.TRUE. ,
(PID.TID 0000.0001) > PTRACERS_initialFile(1) =' ',
(PID.TID 0000.0001) ># - use F95 syntax (to be converted with -DNML_EXTENDED_F77 if needed)
(PID.TID 0000.0001) > PTRACERS_ref(1:15,1) = 2.0282, 2.0609, 2.1206, 2.1581,
(PID.TID 0000.0001) >                     2.1904, 2.2188, 2.2474, 2.2699,
(PID.TID 0000.0001) >                     2.2792, 2.2814, 2.2815, 2.2806,
(PID.TID 0000.0001) >                     2.2800, 2.2760, 2.2758,
(PID.TID 0000.0001) > PTRACERS_EvPrRn(1) = 0.,
(PID.TID 0000.0001) >
(PID.TID 0000.0001) ># Tracer #2 - Alkalinity
(PID.TID 0000.0001) > PTRACERS_names(2) ='alk',
(PID.TID 0000.0001) > PTRACERS_long_names(2) ='Alkalinity',
(PID.TID 0000.0001) > PTRACERS_units(2) ='mol eq/m^3',
(PID.TID 0000.0001) > PTRACERS_advScheme(2) = 77,
(PID.TID 0000.0001) > PTRACERS_diffKh(2) = 0.E3,
(PID.TID 0000.0001) > PTRACERS_diffKr(2) = 3.E-5,
(PID.TID 0000.0001) > PTRACERS_useGMRedi(2) =.TRUE. ,
(PID.TID 0000.0001) > PTRACERS_useKPP(2) =.TRUE. ,
(PID.TID 0000.0001) > PTRACERS_initialFile(2) =' ',
(PID.TID 0000.0001) ># - use F95 syntax (to be converted with -DNML_EXTENDED_F77 if needed)
(PID.TID 0000.0001) > PTRACERS_ref(1:15,2) = 2.3086, 2.3149, 2.3164, 2.3112,
(PID.TID 0000.0001) >                     2.3098, 2.3160, 2.3313, 2.3517,
(PID.TID 0000.0001) >                     2.3667, 2.3761, 2.3832, 2.3862,
(PID.TID 0000.0001) >                     2.3881, 2.3863, 2.3867,
(PID.TID 0000.0001) > PTRACERS_EvPrRn(2) = 0.,
(PID.TID 0000.0001) >
(PID.TID 0000.0001) ># Tracer #3 - Phosphate
(PID.TID 0000.0001) > PTRACERS_names(3) ='po4',
(PID.TID 0000.0001) > PTRACERS_long_names(3) ='Phosphate',
(PID.TID 0000.0001) > PTRACERS_units(3) ='mol P/m^3',
(PID.TID 0000.0001) > PTRACERS_advScheme(3) = 77,
(PID.TID 0000.0001) > PTRACERS_diffKh(3) = 0.E3,
(PID.TID 0000.0001) > PTRACERS_diffKr(3) = 3.E-5,
(PID.TID 0000.0001) > PTRACERS_useGMRedi(3) =.TRUE. ,
(PID.TID 0000.0001) > PTRACERS_useKPP(3) =.TRUE. ,
(PID.TID 0000.0001) > PTRACERS_initialFile(3) =' ',
(PID.TID 0000.0001) ># - use F95 syntax (to be converted with -DNML_EXTENDED_F77 if needed)
(PID.TID 0000.0001) > PTRACERS_ref(1:15,3) = 0.5438E-3, 0.7821E-3, 1.1335E-3, 1.4913E-3,
(PID.TID 0000.0001) >                     1.8606E-3, 2.1986E-3, 2.3966E-3, 2.4187E-3,
(PID.TID 0000.0001) >                     2.4046E-3, 2.3291E-3, 2.2922E-3, 2.2886E-3,
(PID.TID 0000.0001) >                     2.2608E-3, 2.2356E-3, 2.2296E-3,
(PID.TID 0000.0001) ># PTRACERS_EvPrRn(3) = 0.,
(PID.TID 0000.0001) >
(PID.TID 0000.0001) ># Tracer #4 - Dissolved Organic Phosphorus
(PID.TID 0000.0001) > PTRACERS_names(4) ='dop',
(PID.TID 0000.0001) > PTRACERS_long_names(4) ='Dissolved Organic Phosphorus',
(PID.TID 0000.0001) > PTRACERS_units(4) ='mol P/m^3',
(PID.TID 0000.0001) > PTRACERS_advScheme(4) = 77,
(PID.TID 0000.0001) > PTRACERS_diffKh(4) = 0.E3,
(PID.TID 0000.0001) > PTRACERS_diffKr(4) = 3.E-5,
(PID.TID 0000.0001) > PTRACERS_useGMRedi(4) =.TRUE.
(PID.TID 0000.0001) > PTRACERS_useKPP(4) =.TRUE. ,
(PID.TID 0000.0001) > PTRACERS_initialFile(4) =' ',
(PID.TID 0000.0001) ># - use F95 syntax (to be converted with -DNML_EXTENDED_F77 if needed)
(PID.TID 0000.0001) > PTRACERS_ref(1:15,4) = 15*0.,
(PID.TID 0000.0001) ># PTRACERS_EvPrRn(4) = 0.,
(PID.TID 0000.0001) >
(PID.TID 0000.0001) ># Tracer #5 - Dissolved Oxygen
(PID.TID 0000.0001) > PTRACERS_names(5) ='o2',
(PID.TID 0000.0001) > PTRACERS_long_names(5) ='Dissolved Oxygen',
(PID.TID 0000.0001) > PTRACERS_units(5) ='mol O/m^3',
(PID.TID 0000.0001) > PTRACERS_advScheme(5) = 77,
(PID.TID 0000.0001) > PTRACERS_diffKh(5) = 0.E3,
(PID.TID 0000.0001) > PTRACERS_diffKr(5) = 3.E-5,
(PID.TID 0000.0001) > PTRACERS_useGMRedi(5) =.TRUE.
(PID.TID 0000.0001) > PTRACERS_useKPP(5) =.TRUE. ,
(PID.TID 0000.0001) > PTRACERS_initialFile(5) =' ',
(PID.TID 0000.0001) ># - use F95 syntax (to be converted with -DNML_EXTENDED_F77 if needed)
(PID.TID 0000.0001) > PTRACERS_ref(1:15,5) = 0.2457, 0.2336, 0.1975, 0.1729,
(PID.TID 0000.0001) >                     0.1591, 0.1503, 0.1424, 0.1445,
(PID.TID 0000.0001) >                     0.1549, 0.1661, 0.1774, 0.1863,
(PID.TID 0000.0001) >                     0.1925, 0.2021, 0.2051,
(PID.TID 0000.0001) ># PTRACERS_EvPrRn(5) = 0.,
(PID.TID 0000.0001) >
(PID.TID 0000.0001) ># Tracer #6 - Dissolved Iron(Fe)
(PID.TID 0000.0001) > PTRACERS_names(6) ='fe',
(PID.TID 0000.0001) > PTRACERS_long_names(6) ='Dissolved Fe',
(PID.TID 0000.0001) > PTRACERS_units(6) ='mol Fe/m^3',
(PID.TID 0000.0001) > PTRACERS_advScheme(6) = 77,
(PID.TID 0000.0001) > PTRACERS_diffKh(6) = 0.E3,
(PID.TID 0000.0001) > PTRACERS_diffKr(6) = 3.E-5,
(PID.TID 0000.0001) > PTRACERS_useGMRedi(6) =.TRUE.
(PID.TID 0000.0001) > PTRACERS_useKPP(6) =.TRUE. ,
(PID.TID 0000.0001) > PTRACERS_initialFile(6) =' ',
(PID.TID 0000.0001) ># - use F95 syntax (to be converted with -DNML_EXTENDED_F77 if needed)
(PID.TID 0000.0001) >
(PID.TID 0000.0001) ># Tracer #7 - Preformed Oxygen
(PID.TID 0000.0001) > PTRACERS_names(7) ='o2pre',
(PID.TID 0000.0001) > PTRACERS_long_names(7) ='Preformed Dissolved Oxygen',
(PID.TID 0000.0001) > PTRACERS_units(7) ='mol O/m^3',
(PID.TID 0000.0001) > PTRACERS_advScheme(7) = 77,
(PID.TID 0000.0001) > PTRACERS_diffKh(7) = 0.E3,
(PID.TID 0000.0001) > PTRACERS_diffKr(7) = 3.E-5,
(PID.TID 0000.0001) > PTRACERS_useGMRedi(7) =.TRUE.
(PID.TID 0000.0001) > PTRACERS_useKPP(7) =.TRUE. ,
(PID.TID 0000.0001) > PTRACERS_initialFile(7) =' ',
(PID.TID 0000.0001) >
(PID.TID 0000.0001) ># Tracer #8 - Preformed Alkalinity
(PID.TID 0000.0001) > PTRACERS_names(8) ='alkpre',
(PID.TID 0000.0001) > PTRACERS_long_names(8) ='Preformed alkalinity',
(PID.TID 0000.0001) > PTRACERS_units(8) ='moleq/m^3',
(PID.TID 0000.0001) > PTRACERS_advScheme(8) = 77,
(PID.TID 0000.0001) > PTRACERS_diffKh(8) = 0.E3,
(PID.TID 0000.0001) > PTRACERS_diffKr(8) = 3.E-5,
(PID.TID 0000.0001) > PTRACERS_useGMRedi(8) =.TRUE.
(PID.TID 0000.0001) > PTRACERS_useKPP(8) =.TRUE. ,
(PID.TID 0000.0001) > PTRACERS_initialFile(8) =' ',
(PID.TID 0000.0001) >
(PID.TID 0000.0001) ># Tracer #9 - Preformed DIC
(PID.TID 0000.0001) > PTRACERS_names(9) ='dicpre',
(PID.TID 0000.0001) > PTRACERS_long_names(9) ='Preformed DIC',
(PID.TID 0000.0001) > PTRACERS_units(9) ='mol O/m^3',
(PID.TID 0000.0001) > PTRACERS_advScheme(9) = 77,
(PID.TID 0000.0001) > PTRACERS_diffKh(9) = 0.E3,
(PID.TID 0000.0001) > PTRACERS_diffKr(9) = 3.E-5,
(PID.TID 0000.0001) > PTRACERS_useGMRedi(9) =.TRUE.
(PID.TID 0000.0001) > PTRACERS_useKPP(9) =.TRUE. ,
(PID.TID 0000.0001) > PTRACERS_initialFile(9) =' ',
(PID.TID 0000.0001) > &
(PID.TID 0000.0001) 
(PID.TID 0000.0001)  PTRACERS_READPARMS: finished reading data.ptracers
(PID.TID 0000.0001)  GCHEM_READPARMS: opening data.gchem
(PID.TID 0000.0001)  OPEN_COPY_DATA_FILE: opening file data.gchem
(PID.TID 0000.0001) // =======================================================
(PID.TID 0000.0001) // Parameter file "data.gchem"
(PID.TID 0000.0001) // =======================================================
(PID.TID 0000.0001) > &GCHEM_PARM01
(PID.TID 0000.0001) >  useDIC=.TRUE.,
(PID.TID 0000.0001) >  nsubtime=1,
(PID.TID 0000.0001) > &
(PID.TID 0000.0001) 
(PID.TID 0000.0001)  GCHEM_READPARMS: finished reading data.gchem
(PID.TID 0000.0001)  DIC_READPARMS: opening data.dic
(PID.TID 0000.0001)  OPEN_COPY_DATA_FILE: opening file data.dic
(PID.TID 0000.0001) // =======================================================
(PID.TID 0000.0001) // Parameter file "data.dic"
(PID.TID 0000.0001) // =======================================================
(PID.TID 0000.0001) ># DIC Package Parameters
(PID.TID 0000.0001) > &ABIOTIC_PARMS
(PID.TID 0000.0001) > &
(PID.TID 0000.0001) >
(PID.TID 0000.0001) ># Iron cycle model parameters
(PID.TID 0000.0001) ># ----------
(PID.TID 0000.0001) > &BIOTIC_PARMS
(PID.TID 0000.0001) >  alpfe = 1.0E-2,
(PID.TID 0000.0001) >#  alpfe = 0.7E-2,
(PID.TID 0000.0001) >#  KFE = 1.2E-7,
(PID.TID 0000.0001) >#  KFE = 0.84E-7,
(PID.TID 0000.0001) >#  KScav = 6.11E-9,
(PID.TID 0000.0001) >#  KScav = 4.28E-9,
(PID.TID 0000.0001) >  alphaUniform = 2.0e-10,
(PID.TID 0000.0001) >  rainRatioUniform = 5.e-2,
(PID.TID 0000.0001) >  KDOPRemin = 1.6E-8,
(PID.TID 0000.0001) >  KRemin = 0.858,
(PID.TID 0000.0001) > &
(PID.TID 0000.0001) ># DIC forcing files
(PID.TID 0000.0001) ># ----------
(PID.TID 0000.0001) > &DIC_FORCING
(PID.TID 0000.0001) >  DIC_iceFile=   '../input/defaultfields/dic/fice.bin',
(PID.TID 0000.0001) >  DIC_windFile=  '../input/defaultfields/dic/tren_speed.bin',
(PID.TID 0000.0001) >  DIC_silicaFile='../input/defaultfields/dic/sillev1.bin',
(PID.TID 0000.0001) >  DIC_ironFile=  '../input/defaultfields/feflux/feflux_luo03.bin',
(PID.TID 0000.0001) > &
(PID.TID 0000.0001) 
(PID.TID 0000.0001)  DIC_READPARMS: finished reading data.dic
(PID.TID 0000.0001) 
(PID.TID 0000.0001) // ===================================
(PID.TID 0000.0001) // DIC package parameters :
(PID.TID 0000.0001) // ===================================
(PID.TID 0000.0001) permil = /* Ref. density to convert mol/m3 to mol/kg */
(PID.TID 0000.0001)                 9.760858955588092E-04
(PID.TID 0000.0001)     ;
(PID.TID 0000.0001) Pa2Atm = /* Atmosph. pressure conversion coeff (to Atm) */
(PID.TID 0000.0001)                 1.013250000000000E+05
(PID.TID 0000.0001)     ;
(PID.TID 0000.0001) DOPfraction = /* Fraction of new production going to DOP */
(PID.TID 0000.0001)                 6.700000000000000E-01
(PID.TID 0000.0001)     ;
(PID.TID 0000.0001) KDOPRemin = /* DOP remineralization rate (1/s) */
(PID.TID 0000.0001)                 1.600000000000000E-08
(PID.TID 0000.0001)     ;
(PID.TID 0000.0001) KRemin = /* Remin power law coeff. */
(PID.TID 0000.0001)                 8.580000000000000E-01
(PID.TID 0000.0001)     ;
(PID.TID 0000.0001) zcrit = /* Minimum depth for biological activity (m) */
(PID.TID 0000.0001)                 5.000000000000000E+02
(PID.TID 0000.0001)     ;
(PID.TID 0000.0001) O2crit = /* Critical oxygen level (mol/m3) */
(PID.TID 0000.0001)                 4.000000000000000E-03
(PID.TID 0000.0001)     ;
(PID.TID 0000.0001) R_OP = /* Stochiometric ratio R_OP */
(PID.TID 0000.0001)                -1.700000000000000E+02
(PID.TID 0000.0001)     ;
(PID.TID 0000.0001) R_CP = /* Stochiometric ratio R_CP */
(PID.TID 0000.0001)                 1.170000000000000E+02
(PID.TID 0000.0001)     ;
(PID.TID 0000.0001) R_NP = /* Stochiometric ratio R_NP */
(PID.TID 0000.0001)                 1.600000000000000E+01
(PID.TID 0000.0001)     ;
(PID.TID 0000.0001) R_FeP = /* Stochiometric ratio R_FeP */
(PID.TID 0000.0001)                 4.680000000000000E-04
(PID.TID 0000.0001)     ;
(PID.TID 0000.0001) zca = /* Scale depth for CaCO3 remineralization (m) */
(PID.TID 0000.0001)                 3.500000000000000E+03
(PID.TID 0000.0001)     ;
(PID.TID 0000.0001) parfrac = /* Fraction of Qsw that is PAR */
(PID.TID 0000.0001)                 4.000000000000000E-01
(PID.TID 0000.0001)     ;
(PID.TID 0000.0001) k0 = /* Light attentuation coefficient (1/m) */
(PID.TID 0000.0001)                 2.000000000000000E-02
(PID.TID 0000.0001)     ;
(PID.TID 0000.0001) lit0 = /* Half saturation light constant (W/m2) */
(PID.TID 0000.0001)                 3.000000000000000E+01
(PID.TID 0000.0001)     ;
(PID.TID 0000.0001) KPO4 = /* Half saturation phosphate constant (mol/m3) */
(PID.TID 0000.0001)                 5.000000000000000E-04
(PID.TID 0000.0001)     ;
(PID.TID 0000.0001) KFE = /* Half saturation fe constant (mol/m3) */
(PID.TID 0000.0001)                 1.200000000000000E-07
(PID.TID 0000.0001)     ;
(PID.TID 0000.0001) alpfe = /* Solubility of aeolian fe */
(PID.TID 0000.0001)                 1.000000000000000E-02
(PID.TID 0000.0001)     ;
(PID.TID 0000.0001) freefemax = /* Max solubility of free iron (mol/m3) */
(PID.TID 0000.0001)                 3.000000000000000E-07
(PID.TID 0000.0001)     ;
(PID.TID 0000.0001) KScav = /* Iron scavenging rate */
(PID.TID 0000.0001)                 6.108539094650206E-09
(PID.TID 0000.0001)     ;
(PID.TID 0000.0001) ligand_stab = /* Ligand-free iron stability constant (m3/mol) */
(PID.TID 0000.0001)                 1.000000000000000E+08
(PID.TID 0000.0001)     ;
(PID.TID 0000.0001) ligand_tot = /* Total free ligand  (mol/m3) */
(PID.TID 0000.0001)                 1.000000000000000E-06
(PID.TID 0000.0001)     ;
(PID.TID 0000.0001) alphaUniform = /* Timescale for biological activity */
(PID.TID 0000.0001)                 2.000000000000000E-10
(PID.TID 0000.0001)     ;
(PID.TID 0000.0001) rainRatioUniform= /* Inorganic/organic carbon rain ratio */
(PID.TID 0000.0001)                 5.000000000000000E-02
(PID.TID 0000.0001)     ;
(PID.TID 0000.0001) QSW_underice  =  /* Flag for Qsw under Sea-Ice (i.e. SI fract included) */
(PID.TID 0000.0001)                   F
(PID.TID 0000.0001)     ;
(PID.TID 0000.0001) DIC_windFile =  /* File name of wind speeds */
(PID.TID 0000.0001)               '../input/defaultfields/dic/tren_speed.bin'
(PID.TID 0000.0001)     ;
(PID.TID 0000.0001) DIC_atmospFile=  /* File name of atmospheric pressure*/
(PID.TID 0000.0001)               ''
(PID.TID 0000.0001)     ;
(PID.TID 0000.0001) DIC_iceFile =  /* File name of seaice fraction */
(PID.TID 0000.0001)               '../input/defaultfields/dic/fice.bin'
(PID.TID 0000.0001)     ;
(PID.TID 0000.0001) DIC_ironFile =  /* File name of aeolian iron flux */
(PID.TID 0000.0001)               '../input/defaultfields/feflux/feflux_luo03.bin'
(PID.TID 0000.0001)     ;
(PID.TID 0000.0001) DIC_silicaFile=  /* File name of surface silica */
(PID.TID 0000.0001)               '../input/defaultfields/dic/sillev1.bin'
(PID.TID 0000.0001)     ;
(PID.TID 0000.0001) DIC_parFile=  /* File name of photosynthetically available radiation */
(PID.TID 0000.0001)               ''
(PID.TID 0000.0001)     ;
(PID.TID 0000.0001) DIC_forcingPeriod = /* Periodic forcing parameter specific for DIC (s) */
(PID.TID 0000.0001)                 2.592000000000000E+06
(PID.TID 0000.0001)     ;
(PID.TID 0000.0001) DIC_forcingCycle = /* Periodic forcing parameter specific for DIC (s) */
(PID.TID 0000.0001)                 3.110400000000000E+07
(PID.TID 0000.0001)     ;
(PID.TID 0000.0001) dic_int1 =  /*  */
(PID.TID 0000.0001)                       0
(PID.TID 0000.0001)     ;
(PID.TID 0000.0001) dic_int2 =  /*  */
(PID.TID 0000.0001)                       0
(PID.TID 0000.0001)     ;
(PID.TID 0000.0001) dic_int3 =  /*  */
(PID.TID 0000.0001)                       0
(PID.TID 0000.0001)     ;
(PID.TID 0000.0001) dic_int4 =  /*  */
(PID.TID 0000.0001)                       0
(PID.TID 0000.0001)     ;
(PID.TID 0000.0001) dic_pCO2 = /* Atmospheric pCO2 to be read in data.dic */
(PID.TID 0000.0001)                 2.780000000000000E-04
(PID.TID 0000.0001)     ;
(PID.TID 0000.0001) GCHEM_TR_REGISTER:  Start registering GCHEM tracers
(PID.TID 0000.0001)   DIC_TR_REGISTER:  number of DIC tracers=    6
(PID.TID 0000.0001)   DIC_TR_REGISTER:   starting at pTrc num=    1
(PID.TID 0000.0001)   DIC_TR_REGISTER:  Numb. Trac & SepForc Trac:    6    6
(PID.TID 0000.0001) GCHEM_TR_REGISTER:  Numb. Trac & SepForc Trac:    6    6
(PID.TID 0000.0001) 
(PID.TID 0000.0001) AUTODIFF_READPARMS: opening data.autodiff
(PID.TID 0000.0001)  OPEN_COPY_DATA_FILE: opening file data.autodiff
(PID.TID 0000.0001) // =======================================================
(PID.TID 0000.0001) // Parameter file "data.autodiff"
(PID.TID 0000.0001) // =======================================================
(PID.TID 0000.0001) ># =========================
(PID.TID 0000.0001) ># pkg AUTODIFF parameters :
(PID.TID 0000.0001) ># =========================
(PID.TID 0000.0001) >#  inAdExact :: get an exact adjoint (no approximation) (def=.True.)
(PID.TID 0000.0001) >#
(PID.TID 0000.0001) > &AUTODIFF_PARM01
(PID.TID 0000.0001) >#useGGL90inAdMode = .FALSE.,
(PID.TID 0000.0001) > useKPPinAdMode = .FALSE.,
(PID.TID 0000.0001) > useGMRediInAdMode = .FALSE.,
(PID.TID 0000.0001) >#inAdExact = .FALSE.,
(PID.TID 0000.0001) > viscFacInAd = 2.,
(PID.TID 0000.0001) > &
(PID.TID 0000.0001) 
(PID.TID 0000.0001) AUTODIFF_READPARMS: finished reading data.autodiff
(PID.TID 0000.0001) // ===================================
(PID.TID 0000.0001) // AUTODIFF parameters :
(PID.TID 0000.0001) // ===================================
(PID.TID 0000.0001) inAdExact = /* get an exact adjoint (no approximation) */
(PID.TID 0000.0001)                   T
(PID.TID 0000.0001)     ;
(PID.TID 0000.0001) useKPPinAdMode = /* use KPP in adjoint mode */
(PID.TID 0000.0001)                   F
(PID.TID 0000.0001)     ;
(PID.TID 0000.0001) useGMRediInAdMode = /* use GMRedi in adjoint mode */
(PID.TID 0000.0001)                   F
(PID.TID 0000.0001)     ;
(PID.TID 0000.0001) useSEAICEinAdMode = /* use SEAICE in adjoint mode */
(PID.TID 0000.0001)                   F
(PID.TID 0000.0001)     ;
(PID.TID 0000.0001) useGGL90inAdMode = /* use GGL90 in adjoint mode */
(PID.TID 0000.0001)                   F
(PID.TID 0000.0001)     ;
(PID.TID 0000.0001) useSALT_PLUMEinAdMode = /* use SALT_PLUME in adjoint mode */
(PID.TID 0000.0001)                   F
(PID.TID 0000.0001)     ;
(PID.TID 0000.0001) dumpAdVarExch = /* control adexch before dumpinp */
(PID.TID 0000.0001)                       2
(PID.TID 0000.0001)     ;
(PID.TID 0000.0001) mon_AdVarExch = /* control adexch before monitor */
(PID.TID 0000.0001)                       2
(PID.TID 0000.0001)     ;
(PID.TID 0000.0001) viscFacInAd = /* viscosity factor for adjoint */
(PID.TID 0000.0001)                 2.000000000000000E+00
(PID.TID 0000.0001)     ;
(PID.TID 0000.0001) 
(PID.TID 0000.0001) OPTIM_READPARMS: opening data.optim
(PID.TID 0000.0001)  OPEN_COPY_DATA_FILE: opening file data.optim
(PID.TID 0000.0001) // =======================================================
(PID.TID 0000.0001) // Parameter file "data.optim"
(PID.TID 0000.0001) // =======================================================
(PID.TID 0000.0001) >#
(PID.TID 0000.0001) ># ********************************
(PID.TID 0000.0001) ># Off-line optimization parameters
(PID.TID 0000.0001) ># ********************************
(PID.TID 0000.0001) > &OPTIM
(PID.TID 0000.0001) > optimcycle=0,
(PID.TID 0000.0001) > &
(PID.TID 0000.0001) 
(PID.TID 0000.0001) OPTIM_READPARMS: finished reading data.optim
(PID.TID 0000.0001) CTRL_READPARMS: opening data.ctrl
(PID.TID 0000.0001)  OPEN_COPY_DATA_FILE: opening file data.ctrl
(PID.TID 0000.0001) // =======================================================
(PID.TID 0000.0001) // Parameter file "data.ctrl"
(PID.TID 0000.0001) // =======================================================
(PID.TID 0000.0001) ># *********************
(PID.TID 0000.0001) ># ECCO control variables
(PID.TID 0000.0001) ># *********************
(PID.TID 0000.0001) > &ctrl_nml
(PID.TID 0000.0001) > doSinglePrecTapelev=.TRUE.,
(PID.TID 0000.0001) >#to start from given xx*00.data files
(PID.TID 0000.0001) >  doinitxx = .FALSE.,
(PID.TID 0000.0001) >  doMainUnpack = .FALSE.,
(PID.TID 0000.0001) >#to start from given ecco_ctrl... files
(PID.TID 0000.0001) ># doinitxx = .FALSE.,
(PID.TID 0000.0001) > &
(PID.TID 0000.0001) >#
(PID.TID 0000.0001) ># *********************
(PID.TID 0000.0001) ># names for ctrl_pack/unpack
(PID.TID 0000.0001) ># *********************
(PID.TID 0000.0001) > &ctrl_packnames
(PID.TID 0000.0001) > &
(PID.TID 0000.0001) >#
(PID.TID 0000.0001) ># *********************
(PID.TID 0000.0001) ># names for CTRL_GENARR2D,3D CTRL_GENTIM2D
(PID.TID 0000.0001) ># *********************
(PID.TID 0000.0001) > &CTRL_NML_GENARR
(PID.TID 0000.0001) >#
(PID.TID 0000.0001) >#xx_gentim3d_weight(1) = 'wt_ones.data',
(PID.TID 0000.0001) >#xx_gentim3d_file(1)='xx_ptr01',
(PID.TID 0000.0001) >#xx_gentim3d_startdate1(1)=19920101,
(PID.TID 0000.0001) >#xx_gentim3d_startdate2(1)=60000,
(PID.TID 0000.0001) >#xx_gentim3d_period(1)=1209600.0,
(PID.TID 0000.0001) >#mult_gentim3d(1) = 0.,
(PID.TID 0000.0001) >
(PID.TID 0000.0001) >#
(PID.TID 0000.0001) >#xx_gentim2d_weight(2) = 'wt_ones.data',
(PID.TID 0000.0001) >#xx_gentim2d_file(2)='xx_tauu',
(PID.TID 0000.0001) >#xx_gentim2d_startdate1(2)=  19920101,
(PID.TID 0000.0001) >#xx_gentim2d_startdate2(2)=60000,
(PID.TID 0000.0001) >#xx_gentim2d_period(2)=1209600.0,
(PID.TID 0000.0001) >#mult_gentim2d(2) = 0.,
(PID.TID 0000.0001) >#
(PID.TID 0000.0001) >#xx_gentim2d_weight(3) = 'wt_ones.data',
(PID.TID 0000.0001) >#xx_gentim2d_file(3)='xx_tauv',
(PID.TID 0000.0001) >#xx_gentim2d_startdate1(3)=  19920101,
(PID.TID 0000.0001) >#xx_gentim2d_startdate2(3)=60000,
(PID.TID 0000.0001) >#xx_gentim2d_period(3)=1209600.0,
(PID.TID 0000.0001) >#mult_gentim2d(3) = 0.,
(PID.TID 0000.0001) >#
(PID.TID 0000.0001) >#xx_gentim2d_weight(4) = 'wt_ones.data',
(PID.TID 0000.0001) >#xx_gentim2d_file(4)='xx_qnet',
(PID.TID 0000.0001) >#xx_gentim2d_startdate1(4)=  19920101,
(PID.TID 0000.0001) >#xx_gentim2d_startdate2(4)=60000,
(PID.TID 0000.0001) >#xx_gentim2d_period(4)=1209600.0,
(PID.TID 0000.0001) >#mult_gentim2d(4) = 0.,
(PID.TID 0000.0001) >#
(PID.TID 0000.0001) >#xx_gentim2d_weight(5) = 'wt_ones.data',
(PID.TID 0000.0001) >#xx_gentim2d_file(5)='xx_empmr',
(PID.TID 0000.0001) >#xx_gentim2d_startdate1(5)=  19920101,
(PID.TID 0000.0001) >#xx_gentim2d_startdate2(5)=60000,
(PID.TID 0000.0001) >#xx_gentim2d_period(5)=1209600.0,
(PID.TID 0000.0001) >#mult_gentim2d(5) = 0.,
(PID.TID 0000.0001) >#
(PID.TID 0000.0001) >#xx_genarr3d_weight(1) = 'wt_ones.data',
(PID.TID 0000.0001) >#xx_genarr3d_file(1)='xx_kapredi',
(PID.TID 0000.0001) >#mult_genarr3d(1) = 0.,
(PID.TID 0000.0001) >#
(PID.TID 0000.0001) >#xx_genarr3d_weight(2) = 'wt_ones.data',
(PID.TID 0000.0001) >#xx_genarr3d_file(2)='xx_diffkr',
(PID.TID 0000.0001) >#mult_genarr3d(2) = 0.,
(PID.TID 0000.0001) >#
(PID.TID 0000.0001) >#xx_genarr3d_weight(3) = 'wt_ones.data',
(PID.TID 0000.0001) >#xx_genarr3d_file(3)='xx_kapgm',
(PID.TID 0000.0001) >#mult_genarr3d(3) = 0.,
(PID.TID 0000.0001) >#
(PID.TID 0000.0001) > &
(PID.TID 0000.0001) >
(PID.TID 0000.0001) >
(PID.TID 0000.0001) >
(PID.TID 0000.0001) 
(PID.TID 0000.0001) CTRL_READPARMS: finished reading data.ctrl
(PID.TID 0000.0001) COST_READPARMS: opening data.cost
(PID.TID 0000.0001)  OPEN_COPY_DATA_FILE: opening file data.cost
(PID.TID 0000.0001) // =======================================================
(PID.TID 0000.0001) // Parameter file "data.cost"
(PID.TID 0000.0001) // =======================================================
(PID.TID 0000.0001) >#
(PID.TID 0000.0001) >#
(PID.TID 0000.0001) ># ******************
(PID.TID 0000.0001) ># ECCO cost function
(PID.TID 0000.0001) ># ******************
(PID.TID 0000.0001) > &COST_NML
(PID.TID 0000.0001) >#
(PID.TID 0000.0001) >#mult_tracer  = 1.,
(PID.TID 0000.0001) >#mult_test    = 1.,
(PID.TID 0000.0001) >#mult_atl     = 1.,
(PID.TID 0000.0001) > &
(PID.TID 0000.0001) 
(PID.TID 0000.0001) COST_READPARMS: finished reading data.cost
(PID.TID 0000.0001) ECCO_READPARMS: opening data.ecco
(PID.TID 0000.0001)  OPEN_COPY_DATA_FILE: opening file data.ecco
(PID.TID 0000.0001) // =======================================================
(PID.TID 0000.0001) // Parameter file "data.ecco"
(PID.TID 0000.0001) // =======================================================
(PID.TID 0000.0001) ># *******************
(PID.TID 0000.0001) ># ECCO cost functions
(PID.TID 0000.0001) ># *******************
(PID.TID 0000.0001) > &ECCO_COST_NML
(PID.TID 0000.0001) > &
(PID.TID 0000.0001) ># ***************************
(PID.TID 0000.0001) ># ECCO generic cost functions
(PID.TID 0000.0001) ># ***************************
(PID.TID 0000.0001) > &ECCO_GENCOST_NML
(PID.TID 0000.0001) > gencost_name(1) = 'O2test',
(PID.TID 0000.0001) > gencost_barfile(1) = 'm_boxmean_ptracer',
(PID.TID 0000.0001) > gencost_avgperiod(1) = 'month',
(PID.TID 0000.0001) > gencost_itracer(1) = 5,
(PID.TID 0000.0001) > gencost_msk_is3d(1)=.TRUE.,
(PID.TID 0000.0001) > gencost_outputlevel(1) = 1,
(PID.TID 0000.0001) > gencost_mask(1) = 'msk_etp',
(PID.TID 0000.0001) >#gencost_mask(1) = 'msk_np',
(PID.TID 0000.0001) > mult_gencost(1) = 1.0D9,
(PID.TID 0000.0001) >#
(PID.TID 0000.0001) > &
(PID.TID 0000.0001) >#
(PID.TID 0000.0001) 
(PID.TID 0000.0001) ECCO_READPARMS: finished reading #1: ecco_cost_nml
(PID.TID 0000.0001) ECCO_READPARMS: finished reading #2: ecco_gencost_nml
(PID.TID 0000.0001) gencost k_boxmean/horflux=  1 O2test:     T
(PID.TID 0000.0001) ECCO_READPARMS: done
(PID.TID 0000.0001) SET_PARMS: done
(PID.TID 0000.0001) Enter INI_VERTICAL_GRID: setInterFDr=    T ; setCenterDr=    F
(PID.TID 0000.0001) %MON XC_max                       =   3.5859375000000E+02
(PID.TID 0000.0001) %MON XC_min                       =   1.4062500000000E+00
(PID.TID 0000.0001) %MON XC_mean                      =   1.8000000000000E+02
(PID.TID 0000.0001) %MON XC_sd                        =   1.0391987692599E+02
(PID.TID 0000.0001) %MON XG_max                       =   3.5718750000000E+02
(PID.TID 0000.0001) %MON XG_min                       =   0.0000000000000E+00
(PID.TID 0000.0001) %MON XG_mean                      =   1.7859375000000E+02
(PID.TID 0000.0001) %MON XG_sd                        =   1.0391987692599E+02
(PID.TID 0000.0001) %MON DXC_max                      =   3.1259246843155E+05
(PID.TID 0000.0001) %MON DXC_min                      =   7.6737143816223E+03
(PID.TID 0000.0001) %MON DXC_mean                     =   1.9908248704234E+05
(PID.TID 0000.0001) %MON DXC_sd                       =   9.6190602240067E+04
(PID.TID 0000.0001) %MON DXF_max                      =   3.1259246843155E+05
(PID.TID 0000.0001) %MON DXF_min                      =   7.6737143816223E+03
(PID.TID 0000.0001) %MON DXF_mean                     =   1.9908248704234E+05
(PID.TID 0000.0001) %MON DXF_sd                       =   9.6190602240067E+04
(PID.TID 0000.0001) %MON DXG_max                      =   3.1268664380261E+05
(PID.TID 0000.0001) %MON DXG_min                      =   0.0000000000000E+00
(PID.TID 0000.0001) %MON DXG_mean                     =   1.9902252711933E+05
(PID.TID 0000.0001) %MON DXG_sd                       =   9.6314600686012E+04
(PID.TID 0000.0001) %MON DXV_max                      =   3.1268664380261E+05
(PID.TID 0000.0001) %MON DXV_min                      =   0.0000000000000E+00
(PID.TID 0000.0001) %MON DXV_mean                     =   1.9902252711933E+05
(PID.TID 0000.0001) %MON DXV_sd                       =   9.6314600686012E+04
(PID.TID 0000.0001) %MON YC_max                       =   8.8593750000000E+01
(PID.TID 0000.0001) %MON YC_min                       =  -8.8593750000000E+01
(PID.TID 0000.0001) %MON YC_mean                      =   0.0000000000000E+00
(PID.TID 0000.0001) %MON YC_sd                        =   5.1955180880375E+01
(PID.TID 0000.0001) %MON YG_max                       =   8.7187500000000E+01
(PID.TID 0000.0001) %MON YG_min                       =  -9.0000000000000E+01
(PID.TID 0000.0001) %MON YG_mean                      =  -1.4062500000000E+00
(PID.TID 0000.0001) %MON YG_sd                        =   5.1955180880375E+01
(PID.TID 0000.0001) %MON DYC_max                      =   3.1268664380261E+05
(PID.TID 0000.0001) %MON DYC_min                      =   3.1268664380261E+05
(PID.TID 0000.0001) %MON DYC_mean                     =   3.1268664380261E+05
(PID.TID 0000.0001) %MON DYC_sd                       =   9.3132257461548E-10
(PID.TID 0000.0001) %MON DYF_max                      =   3.1268664380261E+05
(PID.TID 0000.0001) %MON DYF_min                      =   3.1268664380261E+05
(PID.TID 0000.0001) %MON DYF_mean                     =   3.1268664380261E+05
(PID.TID 0000.0001) %MON DYF_sd                       =   9.3132257461548E-10
(PID.TID 0000.0001) %MON DYG_max                      =   3.1268664380261E+05
(PID.TID 0000.0001) %MON DYG_min                      =   3.1268664380261E+05
(PID.TID 0000.0001) %MON DYG_mean                     =   3.1268664380261E+05
(PID.TID 0000.0001) %MON DYG_sd                       =   9.3132257461548E-10
(PID.TID 0000.0001) %MON DYU_max                      =   3.1268664380261E+05
(PID.TID 0000.0001) %MON DYU_min                      =   3.1268664380261E+05
(PID.TID 0000.0001) %MON DYU_mean                     =   3.1268664380261E+05
(PID.TID 0000.0001) %MON DYU_sd                       =   9.3132257461548E-10
(PID.TID 0000.0001) %MON RA_max                       =   9.7733676797555E+10
(PID.TID 0000.0001) %MON RA_min                       =   2.3992270990190E+09
(PID.TID 0000.0001) %MON RA_mean                      =   6.2244185031957E+10
(PID.TID 0000.0001) %MON RA_sd                        =   3.0074496923945E+10
(PID.TID 0000.0001) %MON RAW_max                      =   9.7733676797555E+10
(PID.TID 0000.0001) %MON RAW_min                      =   2.3992270990190E+09
(PID.TID 0000.0001) %MON RAW_mean                     =   6.2244185031957E+10
(PID.TID 0000.0001) %MON RAW_sd                       =   3.0074496923945E+10
(PID.TID 0000.0001) %MON RAS_max                      =   9.7763121221868E+10
(PID.TID 0000.0001) %MON RAS_min                      =   0.0000000000000E+00
(PID.TID 0000.0001) %MON RAS_mean                     =   6.2225438247155E+10
(PID.TID 0000.0001) %MON RAS_sd                       =   3.0113265689233E+10
(PID.TID 0000.0001) %MON RAZ_max                      =   9.7763121221868E+10
(PID.TID 0000.0001) %MON RAZ_min                      =   0.0000000000000E+00
(PID.TID 0000.0001) %MON RAZ_mean                     =   6.2225438247155E+10
(PID.TID 0000.0001) %MON RAZ_sd                       =   3.0113265689233E+10
(PID.TID 0000.0001) %MON AngleCS_max                  =   1.0000000000000E+00
(PID.TID 0000.0001) %MON AngleCS_min                  =   1.0000000000000E+00
(PID.TID 0000.0001) %MON AngleCS_mean                 =   1.0000000000000E+00
(PID.TID 0000.0001) %MON AngleCS_sd                   =   0.0000000000000E+00
(PID.TID 0000.0001) %MON AngleSN_max                  =   0.0000000000000E+00
(PID.TID 0000.0001) %MON AngleSN_min                  =   0.0000000000000E+00
(PID.TID 0000.0001) %MON AngleSN_mean                 =   0.0000000000000E+00
(PID.TID 0000.0001) %MON AngleSN_sd                   =   0.0000000000000E+00
(PID.TID 0000.0001) 
(PID.TID 0000.0001) // =======================================================
(PID.TID 0000.0001) // Calendar configuration >>> START <<<
(PID.TID 0000.0001) // =======================================================
(PID.TID 0000.0001) 
(PID.TID 0000.0001) modelstart = /* Start time of the model integration [s] */
(PID.TID 0000.0001)                 1.555200000000000E+11
(PID.TID 0000.0001)     ;
(PID.TID 0000.0001) modelend  = /* End time of the model integration [s] */
(PID.TID 0000.0001)                 1.555515360000000E+11
(PID.TID 0000.0001)     ;
(PID.TID 0000.0001) modelStep = /* Time interval for a model forward step [s] */
(PID.TID 0000.0001)                 4.320000000000000E+04
(PID.TID 0000.0001)     ;
(PID.TID 0000.0001) usingGregorianCalendar= /* Calendar Type: Gregorian Calendar */
(PID.TID 0000.0001)                   T
(PID.TID 0000.0001)     ;
(PID.TID 0000.0001) usingJulianCalendar = /* Calendar Type: Julian Calendar */
(PID.TID 0000.0001)                   F
(PID.TID 0000.0001)     ;
(PID.TID 0000.0001) usingNoLeapYearCal  = /* Calendar Type: without Leap Year */
(PID.TID 0000.0001)                   F
(PID.TID 0000.0001)     ;
(PID.TID 0000.0001) usingModelCalendar  = /* Calendar Type: Model Calendar */
(PID.TID 0000.0001)                   F
(PID.TID 0000.0001)     ;
(PID.TID 0000.0001) modelStartDate YYYYMMDD = /* Model start date YYYY-MM-DD */
(PID.TID 0000.0001)                69200326
(PID.TID 0000.0001)     ;
(PID.TID 0000.0001)   modelStartDate HHMMSS = /* Model start date HH-MM-SS  */
(PID.TID 0000.0001)                  120000
(PID.TID 0000.0001)     ;
(PID.TID 0000.0001) modelEndDate   YYYYMMDD = /* Model end date YYYY-MM-DD */
(PID.TID 0000.0001)                69210326
(PID.TID 0000.0001)     ;
(PID.TID 0000.0001)   modelEndDate   HHMMSS = /* Model end date HH-MM-SS  */
(PID.TID 0000.0001)                  120000
(PID.TID 0000.0001)     ;
(PID.TID 0000.0001) intyears = /* Number of calendar years affected by the integration */
(PID.TID 0000.0001)                       2
(PID.TID 0000.0001)     ;
(PID.TID 0000.0001) intmonths= /* Number of calendar months affected by the integration */
(PID.TID 0000.0001)                      13
(PID.TID 0000.0001)     ;
(PID.TID 0000.0001) intdays = /* Number of calendar days affected by the integration */
(PID.TID 0000.0001)                     366
(PID.TID 0000.0001)     ;
(PID.TID 0000.0001) modelIter0 = /* Base timestep number  */
(PID.TID 0000.0001)                 3600000
(PID.TID 0000.0001)     ;
(PID.TID 0000.0001) modelIterEnd = /* Final timestep number  */
(PID.TID 0000.0001)                 3600730
(PID.TID 0000.0001)     ;
(PID.TID 0000.0001) modelIntSteps= /* Number of model timesteps  */
(PID.TID 0000.0001)                     730
(PID.TID 0000.0001)     ;
(PID.TID 0000.0001) 
(PID.TID 0000.0001) // =======================================================
(PID.TID 0000.0001) // Calendar configuration  >>> END <<<
(PID.TID 0000.0001) // =======================================================
(PID.TID 0000.0001) 
(PID.TID 0000.0001) GAD_INIT_FIXED: GAD_OlMinSize=  2  0  1
(PID.TID 0000.0001) 
(PID.TID 0000.0001) // ===================================
(PID.TID 0000.0001) // GAD parameters :
(PID.TID 0000.0001) // ===================================
(PID.TID 0000.0001) tempAdvScheme =   /* Temp. Horiz.Advection scheme selector */
(PID.TID 0000.0001)                      77
(PID.TID 0000.0001)     ;
(PID.TID 0000.0001) tempVertAdvScheme =   /* Temp. Vert. Advection scheme selector */
(PID.TID 0000.0001)                      77
(PID.TID 0000.0001)     ;
(PID.TID 0000.0001) tempMultiDimAdvec =   /* use Muti-Dim Advec method for Temp */
(PID.TID 0000.0001)                   T
(PID.TID 0000.0001)     ;
(PID.TID 0000.0001) tempSOM_Advection = /* use 2nd Order Moment Advection for Temp */
(PID.TID 0000.0001)                   F
(PID.TID 0000.0001)     ;
(PID.TID 0000.0001) AdamsBashforthGt = /* apply Adams-Bashforth extrapolation on Gt */
(PID.TID 0000.0001)                   F
(PID.TID 0000.0001)     ;
(PID.TID 0000.0001) AdamsBashforth_T = /* apply Adams-Bashforth extrapolation on Temp */
(PID.TID 0000.0001)                   F
(PID.TID 0000.0001)     ;
(PID.TID 0000.0001) saltAdvScheme =   /* Salt. Horiz.advection scheme selector */
(PID.TID 0000.0001)                      77
(PID.TID 0000.0001)     ;
(PID.TID 0000.0001) saltVertAdvScheme =   /* Salt. Vert. Advection scheme selector */
(PID.TID 0000.0001)                      77
(PID.TID 0000.0001)     ;
(PID.TID 0000.0001) saltMultiDimAdvec =   /* use Muti-Dim Advec method for Salt */
(PID.TID 0000.0001)                   T
(PID.TID 0000.0001)     ;
(PID.TID 0000.0001) saltSOM_Advection = /* use 2nd Order Moment Advection for Salt */
(PID.TID 0000.0001)                   F
(PID.TID 0000.0001)     ;
(PID.TID 0000.0001) AdamsBashforthGs = /* apply Adams-Bashforth extrapolation on Gs */
(PID.TID 0000.0001)                   F
(PID.TID 0000.0001)     ;
(PID.TID 0000.0001) AdamsBashforth_S = /* apply Adams-Bashforth extrapolation on Salt */
(PID.TID 0000.0001)                   F
(PID.TID 0000.0001)     ;
(PID.TID 0000.0001) // ===================================
(PID.TID 0000.0001) entering boxmean/horflux check,k,using_gencost(k): ,  1    T
(PID.TID 0000.0001) etaday defined by gencost   0
(PID.TID 0000.0001) 
(PID.TID 0000.0001) // =======================================================
(PID.TID 0000.0001) // ECCO configuration >>> START <<<
(PID.TID 0000.0001) // =======================================================
(PID.TID 0000.0001) 
(PID.TID 0000.0001) gencost( 1) = O2test
(PID.TID 0000.0001) -------------
(PID.TID 0000.0001)   starts and ends at :
(PID.TID 0000.0001)   69200326  120000  2   5
(PID.TID 0000.0001)   69210326  120000  1   6
(PID.TID 0000.0001)   number of records =    13
(PID.TID 0000.0001)  model file = m_boxmean_ptracer
(PID.TID 0000.0001)  gencost_itracer =  5
(PID.TID 0000.0001)  error file =
(PID.TID 0000.0001)  gencost_flag = -3
(PID.TID 0000.0001)  gencost_outputlevel =  1
(PID.TID 0000.0001) 
(PID.TID 0000.0001) 
(PID.TID 0000.0001) 
(PID.TID 0000.0001) // =======================================================
(PID.TID 0000.0001) // ECCO configuration  >>> END <<<
(PID.TID 0000.0001) // =======================================================
(PID.TID 0000.0001) 
(PID.TID 0000.0001) 
(PID.TID 0000.0001) // ===================================
(PID.TID 0000.0001) //  DIC_INIT_FIXED parameters :
(PID.TID 0000.0001) nlev = /* Number of level over which Bio act is computed */
(PID.TID 0000.0001)                      23
(PID.TID 0000.0001)     ;
(PID.TID 0000.0001) ctrl-wet 1:    nvarlength =            0
(PID.TID 0000.0001) ctrl-wet 2: surface wet C =          139
(PID.TID 0000.0001) ctrl-wet 3: surface wet W =          139
(PID.TID 0000.0001) ctrl-wet 4: surface wet S =          123
(PID.TID 0000.0001) ctrl-wet 4a:surface wet V =            0
(PID.TID 0000.0001) ctrl-wet 5: 3D wet points =         2832
(PID.TID 0000.0001) ctrl-wet 6: no recs for i =     1           0
(PID.TID 0000.0001) ctrl-wet 6: no recs for i =     2           0
(PID.TID 0000.0001) ctrl-wet 6: no recs for i =     3           0
(PID.TID 0000.0001) ctrl-wet 6: no recs for i =     4           0
(PID.TID 0000.0001) ctrl-wet 6: no recs for i =     5           0
(PID.TID 0000.0001) ctrl-wet 6: no recs for i =     6           0
(PID.TID 0000.0001) ctrl-wet 6: no recs for i =     7           0
(PID.TID 0000.0001) ctrl-wet 6: no recs for i =     8           0
(PID.TID 0000.0001) ctrl-wet 6: no recs for i =     9           0
(PID.TID 0000.0001) ctrl-wet 6: no recs for i =    10           0
(PID.TID 0000.0001) ctrl-wet 6: no recs for i =    11           0
(PID.TID 0000.0001) ctrl-wet 6: no recs for i =    12           0
(PID.TID 0000.0001) ctrl-wet 6: no recs for i =    13           0
(PID.TID 0000.0001) ctrl-wet 6: no recs for i =    14           0
(PID.TID 0000.0001) ctrl-wet 6: no recs for i =    15           0
(PID.TID 0000.0001) ctrl-wet 6: no recs for i =    16           0
(PID.TID 0000.0001) ctrl-wet 6: no recs for i =    17           0
(PID.TID 0000.0001) ctrl-wet 6: no recs for i =    18           0
(PID.TID 0000.0001) ctrl-wet 6: no recs for i =    19           0
(PID.TID 0000.0001) ctrl-wet 6: no recs for i =    20           0
(PID.TID 0000.0001) ctrl-wet 6: no recs for i =    21           0
(PID.TID 0000.0001) ctrl-wet 6: no recs for i =    22           0
(PID.TID 0000.0001) ctrl-wet 6: no recs for i =    23           0
(PID.TID 0000.0001) ctrl-wet 6: no recs for i =    24           0
(PID.TID 0000.0001) ctrl-wet 6: no recs for i =    25           0
(PID.TID 0000.0001) ctrl-wet 6: no recs for i =    26           0
(PID.TID 0000.0001) ctrl-wet 6: no recs for i =    27           0
(PID.TID 0000.0001) ctrl-wet 6: no recs for i =    28           0
(PID.TID 0000.0001) ctrl-wet 6: no recs for i =    29           0
(PID.TID 0000.0001) ctrl-wet 6: no recs for i =    30           0
(PID.TID 0000.0001) ctrl-wet 6: no recs for i =    31           0
(PID.TID 0000.0001) ctrl-wet 6: no recs for i =    32           0
(PID.TID 0000.0001) ctrl-wet 6: no recs for i =    33           0
(PID.TID 0000.0001) ctrl-wet 6: no recs for i =    34           0
(PID.TID 0000.0001) ctrl-wet 6: no recs for i =    35           0
(PID.TID 0000.0001) ctrl-wet 6: no recs for i =    36           0
(PID.TID 0000.0001) ctrl-wet 6: no recs for i =    37           0
(PID.TID 0000.0001) ctrl-wet 6: no recs for i =    38           0
(PID.TID 0000.0001) ctrl-wet 6: no recs for i =    39           0
(PID.TID 0000.0001) ctrl-wet 6: no recs for i =    40           0
(PID.TID 0000.0001) ctrl-wet 6: no recs for i =    41           0
(PID.TID 0000.0001) ctrl-wet 6: no recs for i =    42           0
(PID.TID 0000.0001) ctrl-wet 6: no recs for i =    43           0
(PID.TID 0000.0001) ctrl-wet 6: no recs for i =    44           0
(PID.TID 0000.0001) ctrl-wet 6: no recs for i =    45           0
(PID.TID 0000.0001) ctrl-wet 6: no recs for i =    46           0
(PID.TID 0000.0001) ctrl-wet 6: no recs for i =    47           0
(PID.TID 0000.0001) ctrl-wet 6: no recs for i =    48           0
(PID.TID 0000.0001) ctrl-wet 6: no recs for i =    49           0
(PID.TID 0000.0001) ctrl-wet 6: no recs for i =    50           0
(PID.TID 0000.0001) ctrl-wet 6: no recs for i =    51           0
(PID.TID 0000.0001) ctrl-wet 6: no recs for i =    52           0
(PID.TID 0000.0001) ctrl-wet 6: no recs for i =    53           0
(PID.TID 0000.0001) ctrl-wet 6: no recs for i =    54           0
(PID.TID 0000.0001) ctrl-wet 6: no recs for i =    55           0
(PID.TID 0000.0001) ctrl-wet 6: no recs for i =    56           0
(PID.TID 0000.0001) ctrl-wet 6: no recs for i =    57           0
(PID.TID 0000.0001) ctrl-wet 6: no recs for i =    58           0
(PID.TID 0000.0001) ctrl-wet 6: no recs for i =    59           0
(PID.TID 0000.0001) ctrl-wet 6: no recs for i =    60           0
(PID.TID 0000.0001) ctrl-wet 6: no recs for i =    61           0
(PID.TID 0000.0001) ctrl-wet 6: no recs for i =    62           0
(PID.TID 0000.0001) ctrl-wet 6: no recs for i =    63           0
(PID.TID 0000.0001) ctrl-wet 6: no recs for i =    64           0
(PID.TID 0000.0001) ctrl-wet 6: no recs for i =    65           0
(PID.TID 0000.0001) ctrl-wet 6: no recs for i =    66           0
(PID.TID 0000.0001) ctrl-wet 6: no recs for i =    67           0
(PID.TID 0000.0001) ctrl-wet 6: no recs for i =    68           0
(PID.TID 0000.0001) ctrl-wet 6: no recs for i =    69           0
(PID.TID 0000.0001) ctrl-wet 6: no recs for i =    70           0
(PID.TID 0000.0001) ctrl-wet 6: no recs for i =    71           0
(PID.TID 0000.0001) ctrl-wet 6: no recs for i =    72           0
(PID.TID 0000.0001) ctrl-wet 6: no recs for i =    73           0
(PID.TID 0000.0001) ctrl-wet 6: no recs for i =    74           0
(PID.TID 0000.0001) ctrl-wet 6: no recs for i =    75           0
(PID.TID 0000.0001) ctrl-wet 6: no recs for i =    76           0
(PID.TID 0000.0001) ctrl-wet 6: no recs for i =    77           0
(PID.TID 0000.0001) ctrl-wet 6: no recs for i =    78           0
(PID.TID 0000.0001) ctrl-wet 6: no recs for i =    79           0
(PID.TID 0000.0001) ctrl-wet 6: no recs for i =    80           0
(PID.TID 0000.0001) ctrl-wet 6: no recs for i =    81           0
(PID.TID 0000.0001) ctrl-wet 6: no recs for i =    82           0
(PID.TID 0000.0001) ctrl-wet 6: no recs for i =    83           0
(PID.TID 0000.0001) ctrl-wet 6: no recs for i =    84           0
(PID.TID 0000.0001) ctrl-wet 6: no recs for i =    85           0
(PID.TID 0000.0001) ctrl-wet 6: no recs for i =    86           0
(PID.TID 0000.0001) ctrl-wet 6: no recs for i =    87           0
(PID.TID 0000.0001) ctrl-wet 6: no recs for i =    88           0
(PID.TID 0000.0001) ctrl-wet 6: no recs for i =    89           0
(PID.TID 0000.0001) ctrl-wet 6: no recs for i =    90           0
(PID.TID 0000.0001) ctrl-wet 6: no recs for i =    91           0
(PID.TID 0000.0001) ctrl-wet 6: no recs for i =    92           0
(PID.TID 0000.0001) ctrl-wet 6: no recs for i =    93           0
(PID.TID 0000.0001) ctrl-wet 6: no recs for i =    94           0
(PID.TID 0000.0001) ctrl-wet 6: no recs for i =    95           0
(PID.TID 0000.0001) ctrl-wet 6: no recs for i =    96           0
(PID.TID 0000.0001) ctrl-wet 6: no recs for i =    97           0
(PID.TID 0000.0001) ctrl-wet 6: no recs for i =    98           0
(PID.TID 0000.0001) ctrl-wet 6: no recs for i =    99           0
(PID.TID 0000.0001) ctrl-wet 6: no recs for i =   100           0
(PID.TID 0000.0001) ctrl-wet 6: no recs for i =   101           0
(PID.TID 0000.0001) ctrl-wet 6: no recs for i =   102           0
(PID.TID 0000.0001) ctrl-wet 6: no recs for i =   103           0
(PID.TID 0000.0001) ctrl-wet 6: no recs for i =   104           0
(PID.TID 0000.0001) ctrl-wet 6: no recs for i =   105           0
(PID.TID 0000.0001) ctrl-wet 6: no recs for i =   106           0
(PID.TID 0000.0001) ctrl-wet 6: no recs for i =   107           0
(PID.TID 0000.0001) ctrl-wet 6: no recs for i =   108           0
(PID.TID 0000.0001) ctrl-wet 6: no recs for i =   109           0
(PID.TID 0000.0001) ctrl-wet 6: no recs for i =   110           0
(PID.TID 0000.0001) ctrl-wet 6: no recs for i =   111           0
(PID.TID 0000.0001) ctrl-wet 6: no recs for i =   112           0
(PID.TID 0000.0001) ctrl-wet 6: no recs for i =   113           0
(PID.TID 0000.0001) ctrl-wet 6: no recs for i =   114           0
(PID.TID 0000.0001) ctrl-wet 6: no recs for i =   115           0
(PID.TID 0000.0001) ctrl-wet 6: no recs for i =   116           0
(PID.TID 0000.0001) ctrl-wet 6: no recs for i =   117           0
(PID.TID 0000.0001) ctrl-wet 6: no recs for i =   118           0
(PID.TID 0000.0001) ctrl-wet 6: no recs for i =   119           0
(PID.TID 0000.0001) ctrl-wet 6: no recs for i =   120           0
(PID.TID 0000.0001) ctrl-wet 6: no recs for i =   121           0
(PID.TID 0000.0001) ctrl-wet 6: no recs for i =   122           0
(PID.TID 0000.0001) ctrl-wet 6: no recs for i =   123           0
(PID.TID 0000.0001) ctrl-wet 6: no recs for i =   124           0
(PID.TID 0000.0001) ctrl-wet 6: no recs for i =   125           0
(PID.TID 0000.0001) ctrl-wet 6: no recs for i =   126           0
(PID.TID 0000.0001) ctrl-wet 6: no recs for i =   127           0
(PID.TID 0000.0001) ctrl-wet 6: no recs for i =   128           0
(PID.TID 0000.0001) ctrl-wet 6: no recs for i =   129           0
(PID.TID 0000.0001) ctrl-wet 6: no recs for i =   130           0
(PID.TID 0000.0001) ctrl-wet 6: no recs for i =   131           0
(PID.TID 0000.0001) ctrl-wet 6: no recs for i =   132           0
(PID.TID 0000.0001) ctrl-wet 6: no recs for i =   133           0
(PID.TID 0000.0001) ctrl-wet 6: no recs for i =   134           0
(PID.TID 0000.0001) ctrl-wet 6: no recs for i =   135           0
(PID.TID 0000.0001) ctrl-wet 6: no recs for i =   136           0
(PID.TID 0000.0001) ctrl-wet 6: no recs for i =   137           0
(PID.TID 0000.0001) ctrl-wet 6: no recs for i =   138           0
(PID.TID 0000.0001) ctrl-wet 6: no recs for i =   139           0
(PID.TID 0000.0001) ctrl-wet 6: no recs for i =   140           0
(PID.TID 0000.0001) ctrl-wet 6: no recs for i =   141           0
(PID.TID 0000.0001) ctrl-wet 6: no recs for i =   142           0
(PID.TID 0000.0001) ctrl-wet 6: no recs for i =   143           0
(PID.TID 0000.0001) ctrl-wet 6: no recs for i =   144           0
(PID.TID 0000.0001) ctrl-wet 6: no recs for i =   145           0
(PID.TID 0000.0001) ctrl-wet 6: no recs for i =   146           0
(PID.TID 0000.0001) ctrl-wet 6: no recs for i =   147           0
(PID.TID 0000.0001) ctrl-wet 6: no recs for i =   148           0
(PID.TID 0000.0001) ctrl-wet 6: no recs for i =   149           0
(PID.TID 0000.0001) ctrl-wet 6: no recs for i =   150           0
(PID.TID 0000.0001) ctrl-wet 6: no recs for i =   151           0
(PID.TID 0000.0001) ctrl-wet 6: no recs for i =   152           0
(PID.TID 0000.0001) ctrl-wet 6: no recs for i =   153           0
(PID.TID 0000.0001) ctrl-wet 6: no recs for i =   154           0
(PID.TID 0000.0001) ctrl-wet 6: no recs for i =   155           0
(PID.TID 0000.0001) ctrl-wet 6: no recs for i =   156           0
(PID.TID 0000.0001) ctrl-wet 6: no recs for i =   157           0
(PID.TID 0000.0001) ctrl-wet 6: no recs for i =   158           0
(PID.TID 0000.0001) ctrl-wet 6: no recs for i =   159           0
(PID.TID 0000.0001) ctrl-wet 6: no recs for i =   160           0
(PID.TID 0000.0001) ctrl-wet 6: no recs for i =   161           0
(PID.TID 0000.0001) ctrl-wet 6: no recs for i =   162           0
(PID.TID 0000.0001) ctrl-wet 6: no recs for i =   163           0
(PID.TID 0000.0001) ctrl-wet 6: no recs for i =   164           0
(PID.TID 0000.0001) ctrl-wet 6: no recs for i =   165           0
(PID.TID 0000.0001) ctrl-wet 6: no recs for i =   166           0
(PID.TID 0000.0001) ctrl-wet 6: no recs for i =   167           0
(PID.TID 0000.0001) ctrl-wet 6: no recs for i =   168           0
(PID.TID 0000.0001) ctrl-wet 6: no recs for i =   169           0
(PID.TID 0000.0001) ctrl-wet 6: no recs for i =   170           0
(PID.TID 0000.0001) ctrl-wet 6: no recs for i =   171           0
(PID.TID 0000.0001) ctrl-wet 6: no recs for i =   172           0
(PID.TID 0000.0001) ctrl-wet 6: no recs for i =   173           0
(PID.TID 0000.0001) ctrl-wet 6: no recs for i =   174           0
(PID.TID 0000.0001) ctrl-wet 6: no recs for i =   175           0
(PID.TID 0000.0001) ctrl-wet 6: no recs for i =   176           0
(PID.TID 0000.0001) ctrl-wet 6: no recs for i =   177           0
(PID.TID 0000.0001) ctrl-wet 6: no recs for i =   178           0
(PID.TID 0000.0001) ctrl-wet 6: no recs for i =   179           0
(PID.TID 0000.0001) ctrl-wet 6: no recs for i =   180           0
(PID.TID 0000.0001) ctrl-wet 6: no recs for i =   181           0
(PID.TID 0000.0001) ctrl-wet 6: no recs for i =   182           0
(PID.TID 0000.0001) ctrl-wet 6: no recs for i =   183           0
(PID.TID 0000.0001) ctrl-wet 6: no recs for i =   184           0
(PID.TID 0000.0001) ctrl-wet 6: no recs for i =   185           0
(PID.TID 0000.0001) ctrl-wet 6: no recs for i =   186           0
(PID.TID 0000.0001) ctrl-wet 6: no recs for i =   187           0
(PID.TID 0000.0001) ctrl-wet 6: no recs for i =   188           0
(PID.TID 0000.0001) ctrl-wet 6: no recs for i =   189           0
(PID.TID 0000.0001) ctrl-wet 6: no recs for i =   190           0
(PID.TID 0000.0001) ctrl-wet 6: no recs for i =   191           0
(PID.TID 0000.0001) ctrl-wet 6: no recs for i =   192           0
(PID.TID 0000.0001) ctrl-wet 6: no recs for i =   193           0
(PID.TID 0000.0001) ctrl-wet 6: no recs for i =   194           0
(PID.TID 0000.0001) ctrl-wet 6: no recs for i =   195           0
(PID.TID 0000.0001) ctrl-wet 6: no recs for i =   196           0
(PID.TID 0000.0001) ctrl-wet 6: no recs for i =   197           0
(PID.TID 0000.0001) ctrl-wet 6: no recs for i =   198           0
(PID.TID 0000.0001) ctrl-wet 6: no recs for i =   199           0
(PID.TID 0000.0001) ctrl-wet 6: no recs for i =   200           0
(PID.TID 0000.0001) ctrl-wet 6: no recs for i =   201           0
(PID.TID 0000.0001) ctrl-wet 6: no recs for i =   202           0
(PID.TID 0000.0001) ctrl-wet 6: no recs for i =   203           0
(PID.TID 0000.0001) ctrl-wet 6: no recs for i =   204           0
(PID.TID 0000.0001) ctrl-wet 6: no recs for i =   205           0
(PID.TID 0000.0001) ctrl-wet 6: no recs for i =   206           0
(PID.TID 0000.0001) ctrl-wet 6: no recs for i =   207           0
(PID.TID 0000.0001) ctrl-wet 6: no recs for i =   208           0
(PID.TID 0000.0001) ctrl-wet 6: no recs for i =   209           0
(PID.TID 0000.0001) ctrl-wet 6: no recs for i =   210           0
(PID.TID 0000.0001) ctrl-wet 6: no recs for i =   211           0
(PID.TID 0000.0001) ctrl-wet 6: no recs for i =   212           0
(PID.TID 0000.0001) ctrl-wet 6: no recs for i =   213           0
(PID.TID 0000.0001) ctrl-wet 6: no recs for i =   214           0
(PID.TID 0000.0001) ctrl-wet 6: no recs for i =   215           0
(PID.TID 0000.0001) ctrl-wet 6: no recs for i =   216           0
(PID.TID 0000.0001) ctrl-wet 6: no recs for i =   217           0
(PID.TID 0000.0001) ctrl-wet 6: no recs for i =   218           0
(PID.TID 0000.0001) ctrl-wet 6: no recs for i =   219           0
(PID.TID 0000.0001) ctrl-wet 6: no recs for i =   220           0
(PID.TID 0000.0001) ctrl-wet 6: no recs for i =   221           0
(PID.TID 0000.0001) ctrl-wet 6: no recs for i =   222           0
(PID.TID 0000.0001) ctrl-wet 6: no recs for i =   223           0
(PID.TID 0000.0001) ctrl-wet 6: no recs for i =   224           0
(PID.TID 0000.0001) ctrl-wet 6: no recs for i =   225           0
(PID.TID 0000.0001) ctrl-wet 6: no recs for i =   226           0
(PID.TID 0000.0001) ctrl-wet 6: no recs for i =   227           0
(PID.TID 0000.0001) ctrl-wet 6: no recs for i =   228           0
(PID.TID 0000.0001) ctrl-wet 6: no recs for i =   229           0
(PID.TID 0000.0001) ctrl-wet 6: no recs for i =   230           0
(PID.TID 0000.0001) ctrl-wet 6: no recs for i =   231           0
(PID.TID 0000.0001) ctrl-wet 6: no recs for i =   232           0
(PID.TID 0000.0001) ctrl-wet 6: no recs for i =   233           0
(PID.TID 0000.0001) ctrl-wet 6: no recs for i =   234           0
(PID.TID 0000.0001) ctrl-wet 6: no recs for i =   235           0
(PID.TID 0000.0001) ctrl-wet 6: no recs for i =   236           0
(PID.TID 0000.0001) ctrl-wet 6: no recs for i =   237           0
(PID.TID 0000.0001) ctrl-wet 6: no recs for i =   238           0
(PID.TID 0000.0001) ctrl-wet 6: no recs for i =   239           0
(PID.TID 0000.0001) ctrl-wet 6: no recs for i =   240           0
(PID.TID 0000.0001) ctrl-wet 6: no recs for i =   241           0
(PID.TID 0000.0001) ctrl-wet 6: no recs for i =   242           0
(PID.TID 0000.0001) ctrl-wet 6: no recs for i =   243           0
(PID.TID 0000.0001) ctrl-wet 6: no recs for i =   244           0
(PID.TID 0000.0001) ctrl-wet 6: no recs for i =   245           0
(PID.TID 0000.0001) ctrl-wet 6: no recs for i =   246           0
(PID.TID 0000.0001) ctrl-wet 6: no recs for i =   247           0
(PID.TID 0000.0001) ctrl-wet 6: no recs for i =   248           0
(PID.TID 0000.0001) ctrl-wet 6: no recs for i =   249           0
(PID.TID 0000.0001) ctrl-wet 6: no recs for i =   250           0
(PID.TID 0000.0001) ctrl-wet 6: no recs for i =   251           0
(PID.TID 0000.0001) ctrl-wet 6: no recs for i =   252           0
(PID.TID 0000.0001) ctrl-wet 6: no recs for i =   253           0
(PID.TID 0000.0001) ctrl-wet 6: no recs for i =   254           0
(PID.TID 0000.0001) ctrl-wet 6: no recs for i =   255           0
(PID.TID 0000.0001) ctrl-wet 6: no recs for i =   256           0
(PID.TID 0000.0001) ctrl-wet 6: no recs for i =   257           0
(PID.TID 0000.0001) ctrl-wet 6: no recs for i =   258           0
(PID.TID 0000.0001) ctrl-wet 6: no recs for i =   259           0
(PID.TID 0000.0001) ctrl-wet 6: no recs for i =   260           0
(PID.TID 0000.0001) ctrl-wet 6: no recs for i =   261           0
(PID.TID 0000.0001) ctrl-wet 6: no recs for i =   262           0
(PID.TID 0000.0001) ctrl-wet 6: no recs for i =   263           0
(PID.TID 0000.0001) ctrl-wet 6: no recs for i =   264           0
(PID.TID 0000.0001) ctrl-wet 6: no recs for i =   265           0
(PID.TID 0000.0001) ctrl-wet 6: no recs for i =   266           0
(PID.TID 0000.0001) ctrl-wet 6: no recs for i =   267           0
(PID.TID 0000.0001) ctrl-wet 6: no recs for i =   268           0
(PID.TID 0000.0001) ctrl-wet 6: no recs for i =   269           0
(PID.TID 0000.0001) ctrl-wet 6: no recs for i =   270           0
(PID.TID 0000.0001) ctrl-wet 6: no recs for i =   271           0
(PID.TID 0000.0001) ctrl-wet 6: no recs for i =   272           0
(PID.TID 0000.0001) ctrl-wet 6: no recs for i =   273           0
(PID.TID 0000.0001) ctrl-wet 6: no recs for i =   274           0
(PID.TID 0000.0001) ctrl-wet 6: no recs for i =   275           0
(PID.TID 0000.0001) ctrl-wet 6: no recs for i =   276           0
(PID.TID 0000.0001) ctrl-wet 6: no recs for i =   277           0
(PID.TID 0000.0001) ctrl-wet 6: no recs for i =   278           0
(PID.TID 0000.0001) ctrl-wet 6: no recs for i =   279           0
(PID.TID 0000.0001) ctrl-wet 6: no recs for i =   280           0
(PID.TID 0000.0001) ctrl-wet 6: no recs for i =   281           0
(PID.TID 0000.0001) ctrl-wet 6: no recs for i =   282           0
(PID.TID 0000.0001) ctrl-wet 6: no recs for i =   283           0
(PID.TID 0000.0001) ctrl-wet 6: no recs for i =   284           0
(PID.TID 0000.0001) ctrl-wet 6: no recs for i =   285           0
(PID.TID 0000.0001) ctrl-wet 6: no recs for i =   286           0
(PID.TID 0000.0001) ctrl-wet 6: no recs for i =   287           0
(PID.TID 0000.0001) ctrl-wet 6: no recs for i =   288           0
(PID.TID 0000.0001) ctrl-wet 6: no recs for i =   289           0
(PID.TID 0000.0001) ctrl-wet 6: no recs for i =   290           0
(PID.TID 0000.0001) ctrl-wet 6: no recs for i =   291           0
(PID.TID 0000.0001) ctrl-wet 6: no recs for i =   292           0
(PID.TID 0000.0001) ctrl-wet 6: no recs for i =   293           0
(PID.TID 0000.0001) ctrl-wet 6: no recs for i =   294           0
(PID.TID 0000.0001) ctrl-wet 6: no recs for i =   295           0
(PID.TID 0000.0001) ctrl-wet 6: no recs for i =   296           0
(PID.TID 0000.0001) ctrl-wet 6: no recs for i =   297           0
(PID.TID 0000.0001) ctrl-wet 6: no recs for i =   298           0
(PID.TID 0000.0001) ctrl-wet 6: no recs for i =   299           0
(PID.TID 0000.0001) ctrl-wet 6: no recs for i =   300           0
(PID.TID 0000.0001) ctrl-wet 6: no recs for i =   301           0
(PID.TID 0000.0001) ctrl-wet 6: no recs for i =   302           0
(PID.TID 0000.0001) ctrl-wet 6: no recs for i =   303           0
(PID.TID 0000.0001) ctrl-wet 6: no recs for i =   304           0
(PID.TID 0000.0001) ctrl-wet 6: no recs for i =   305           0
(PID.TID 0000.0001) ctrl-wet 6: no recs for i =   306           0
(PID.TID 0000.0001) ctrl-wet 6: no recs for i =   307           0
(PID.TID 0000.0001) ctrl-wet 6: no recs for i =   308           0
(PID.TID 0000.0001) ctrl-wet 6: no recs for i =   309           0
(PID.TID 0000.0001) ctrl-wet 6: no recs for i =   310           0
(PID.TID 0000.0001) ctrl-wet 6: no recs for i =   311           0
(PID.TID 0000.0001) ctrl-wet 6: no recs for i =   312           0
(PID.TID 0000.0001) ctrl-wet 6: no recs for i =   313           0
(PID.TID 0000.0001) ctrl-wet 6: no recs for i =   314           0
(PID.TID 0000.0001) ctrl-wet 6: no recs for i =   315           0
(PID.TID 0000.0001) ctrl-wet 6: no recs for i =   316           0
(PID.TID 0000.0001) ctrl-wet 6: no recs for i =   317           0
(PID.TID 0000.0001) ctrl-wet 6: no recs for i =   318           0
(PID.TID 0000.0001) ctrl-wet 6: no recs for i =   319           0
(PID.TID 0000.0001) ctrl-wet 6: no recs for i =   320           0
(PID.TID 0000.0001) ctrl-wet 6: no recs for i =   321           0
(PID.TID 0000.0001) ctrl-wet 6: no recs for i =   322           0
(PID.TID 0000.0001) ctrl-wet 6: no recs for i =   323           0
(PID.TID 0000.0001) ctrl-wet 6: no recs for i =   324           0
(PID.TID 0000.0001) ctrl-wet 6: no recs for i =   325           0
(PID.TID 0000.0001) ctrl-wet 6: no recs for i =   326           0
(PID.TID 0000.0001) ctrl-wet 6: no recs for i =   327           0
(PID.TID 0000.0001) ctrl-wet 6: no recs for i =   328           0
(PID.TID 0000.0001) ctrl-wet 6: no recs for i =   329           0
(PID.TID 0000.0001) ctrl-wet 6: no recs for i =   330           0
(PID.TID 0000.0001) ctrl-wet 6: no recs for i =   331           0
(PID.TID 0000.0001) ctrl-wet 6: no recs for i =   332           0
(PID.TID 0000.0001) ctrl-wet 6: no recs for i =   333           0
(PID.TID 0000.0001) ctrl-wet 6: no recs for i =   334           0
(PID.TID 0000.0001) ctrl-wet 6: no recs for i =   335           0
(PID.TID 0000.0001) ctrl-wet 6: no recs for i =   336           0
(PID.TID 0000.0001) ctrl-wet 6: no recs for i =   337           0
(PID.TID 0000.0001) ctrl-wet 6: no recs for i =   338           0
(PID.TID 0000.0001) ctrl-wet 6: no recs for i =   339           0
(PID.TID 0000.0001) ctrl-wet 6: no recs for i =   340           0
(PID.TID 0000.0001) ctrl-wet 6: no recs for i =   341           0
(PID.TID 0000.0001) ctrl-wet 6: no recs for i =   342           0
(PID.TID 0000.0001) ctrl-wet 6: no recs for i =   343           0
(PID.TID 0000.0001) ctrl-wet 6: no recs for i =   344           0
(PID.TID 0000.0001) ctrl-wet 6: no recs for i =   345           0
(PID.TID 0000.0001) ctrl-wet 6: no recs for i =   346           0
(PID.TID 0000.0001) ctrl-wet 6: no recs for i =   347           0
(PID.TID 0000.0001) ctrl-wet 6: no recs for i =   348           0
(PID.TID 0000.0001) ctrl-wet 6: no recs for i =   349           0
[...]
 cg2d: Sum(rhs),rhsMax =   1.05477796807918E-06  8.79246739608905E+00
 cg2d: Sum(rhs),rhsMax =   1.05413862883097E-06  8.79779723871654E+00
 cg2d: Sum(rhs),rhsMax =   1.05350127910242E-06  8.80312361896913E+00
 cg2d: Sum(rhs),rhsMax =   1.57571220427144E-06  8.80844397255852E+00
 cg2d: Sum(rhs),rhsMax =  -1.67350577839898E-11  5.87396499486325E-02
 cg2d: Sum(rhs),rhsMax =   1.05541818840038E-06  8.78713645330004E+00
 cg2d: Sum(rhs),rhsMax =   1.05477796807918E-06  8.79246739608905E+00
 cg2d: Sum(rhs),rhsMax =   1.05413862883097E-06  8.79779723871654E+00
 cg2d: Sum(rhs),rhsMax =   7.22400237407328E-07  8.80312326063721E+00
 cg2d: Sum(rhs),rhsMax =  -1.67763580805058E-11  5.91374334227732E-02
 cg2d: Sum(rhs),rhsMax =   1.05541818840038E-06  8.78713645330004E+00
 cg2d: Sum(rhs),rhsMax =   1.05477796807918E-06  8.79246739608905E+00
 cg2d: Sum(rhs),rhsMax =   2.06646798517340E-06  8.79779753546422E+00
 cg2d: Sum(rhs),rhsMax =  -1.68376423914651E-11  5.93539554785065E-02
 cg2d: Sum(rhs),rhsMax =   1.05541818840038E-06  8.78713645330004E+00
 cg2d: Sum(rhs),rhsMax =   1.42743775199961E-06  8.79246738145001E+00
 cg2d: Sum(rhs),rhsMax =  -1.68691727253645E-11  5.96194869877541E-02
 cg2d: Sum(rhs),rhsMax =   1.05541782602359E-06  8.78713645300573E+00
 cg2d: Sum(rhs),rhsMax =  -1.72053482572210E-11  5.91888258675436E-02
 EXTERNAL_FIELDS_LOAD, it=   3600000 : Reading new data, i0,i1=   12    1 (prev=   12    1 )
 DIC_FIELDS_LOAD, it=   3600000 : Reading new data, i0,i1=   12    1 (prev=   12    0 )
 cg2d: Sum(rhs),rhsMax =   1.69318610687696E-07  8.73439699737069E+00
 cg2d: Sum(rhs),rhsMax =   1.69217777568065E-07  8.73957985685053E+00
 cg2d: Sum(rhs),rhsMax =   1.69116930237578E-07  8.74478996407667E+00
 cg2d: Sum(rhs),rhsMax =   1.69015713424869E-07  8.75002525197054E+00
 cg2d: Sum(rhs),rhsMax =   1.68913977915963E-07  8.75528319149979E+00
 cg2d: Sum(rhs),rhsMax =   1.68812391621032E-07  8.76056091159563E+00
 cg2d: Sum(rhs),rhsMax =   1.68710130310501E-07  8.76585531016545E+00
 cg2d: Sum(rhs),rhsMax =   1.68607783734842E-07  8.77116317961867E+00
 cg2d: Sum(rhs),rhsMax =   1.68505465580893E-07  8.77648131488675E+00
 cg2d: Sum(rhs),rhsMax =   1.68403296640918E-07  8.78180660701903E+00
 EXTERNAL_FIELDS_LOAD, it=   3600000 : Reading new data, i0,i1=   12    1 (prev=   12    1 )
 DIC_FIELDS_LOAD, it=   3600000 : Reading new data, i0,i1=   12    1 (prev=   12    0 )
 cg2d: Sum(rhs),rhsMax =   1.69318610687696E-07  8.73439699737069E+00
 cg2d: Sum(rhs),rhsMax =   1.69217777568065E-07  8.73957985685053E+00
 cg2d: Sum(rhs),rhsMax =   1.69116930237578E-07  8.74478996407667E+00
 cg2d: Sum(rhs),rhsMax =   1.69015713424869E-07  8.75002525197054E+00
 cg2d: Sum(rhs),rhsMax =   1.68913977915963E-07  8.75528319149979E+00
 cg2d: Sum(rhs),rhsMax =   1.68812391621032E-07  8.76056091159563E+00
 cg2d: Sum(rhs),rhsMax =   1.68710130310501E-07  8.76585531016545E+00
 cg2d: Sum(rhs),rhsMax =   1.68607783734842E-07  8.77116317961867E+00
 cg2d: Sum(rhs),rhsMax =   1.68505465580893E-07  8.77648131488675E+00
 cg2d: Sum(rhs),rhsMax =   3.31660203300999E-07  8.78180684858381E+00
 cg2d: Sum(rhs),rhsMax =  -1.63642432937650E-11  6.23769746417374E-02
 EXTERNAL_FIELDS_LOAD, it=   3600000 : Reading new data, i0,i1=   12    1 (prev=   12    1 )
 DIC_FIELDS_LOAD, it=   3600000 : Reading new data, i0,i1=   12    1 (prev=   12    0 )
 cg2d: Sum(rhs),rhsMax =   1.69318610687696E-07  8.73439699737069E+00
 cg2d: Sum(rhs),rhsMax =   1.69217777568065E-07  8.73957985685053E+00
 cg2d: Sum(rhs),rhsMax =   1.69116930237578E-07  8.74478996407667E+00
 cg2d: Sum(rhs),rhsMax =   1.69015713424869E-07  8.75002525197054E+00
 cg2d: Sum(rhs),rhsMax =   1.68913977915963E-07  8.75528319149979E+00
 cg2d: Sum(rhs),rhsMax =   1.68812391621032E-07  8.76056091159563E+00
 cg2d: Sum(rhs),rhsMax =   1.68710130310501E-07  8.76585531016545E+00
 cg2d: Sum(rhs),rhsMax =   1.68607783734842E-07  8.77116317961867E+00
 cg2d: Sum(rhs),rhsMax =   1.04218521101984E-06  8.77648148906394E+00
 cg2d: Sum(rhs),rhsMax =  -1.55653268052447E-11  6.60767501782766E-02
 EXTERNAL_FIELDS_LOAD, it=   3600000 : Reading new data, i0,i1=   12    1 (prev=   12    1 )
 DIC_FIELDS_LOAD, it=   3600000 : Reading new data, i0,i1=   12    1 (prev=   12    0 )
 cg2d: Sum(rhs),rhsMax =   1.69318610687696E-07  8.73439699737069E+00
 cg2d: Sum(rhs),rhsMax =   1.69217777568065E-07  8.73957985685053E+00
 cg2d: Sum(rhs),rhsMax =   1.69116930237578E-07  8.74478996407667E+00
 cg2d: Sum(rhs),rhsMax =   1.69015713424869E-07  8.75002525197054E+00
 cg2d: Sum(rhs),rhsMax =   1.68913977915963E-07  8.75528319149979E+00
 cg2d: Sum(rhs),rhsMax =   1.68812391621032E-07  8.76056091159563E+00
 cg2d: Sum(rhs),rhsMax =   1.68710130310501E-07  8.76585531016545E+00
 cg2d: Sum(rhs),rhsMax =  -2.14224556316367E-07  8.77116335169235E+00
 cg2d: Sum(rhs),rhsMax =  -1.55200297058400E-11  6.65393708043577E-02
 EXTERNAL_FIELDS_LOAD, it=   3600000 : Reading new data, i0,i1=   12    1 (prev=   12    1 )
 DIC_FIELDS_LOAD, it=   3600000 : Reading new data, i0,i1=   12    1 (prev=   12    0 )
 cg2d: Sum(rhs),rhsMax =   1.69318610687696E-07  8.73439699737069E+00
 cg2d: Sum(rhs),rhsMax =   1.69217777568065E-07  8.73957985685053E+00
 cg2d: Sum(rhs),rhsMax =   1.69116930237578E-07  8.74478996407667E+00
 cg2d: Sum(rhs),rhsMax =   1.69015713424869E-07  8.75002525197054E+00
 cg2d: Sum(rhs),rhsMax =   1.68913977915963E-07  8.75528319149979E+00
 cg2d: Sum(rhs),rhsMax =   1.68812391621032E-07  8.76056091159563E+00
 cg2d: Sum(rhs),rhsMax =   1.71469719845163E-06  8.76585547286946E+00
 cg2d: Sum(rhs),rhsMax =  -1.58490998103389E-11  6.56856857795847E-02
 EXTERNAL_FIELDS_LOAD, it=   3600000 : Reading new data, i0,i1=   12    1 (prev=   12    1 )
 DIC_FIELDS_LOAD, it=   3600000 : Reading new data, i0,i1=   12    1 (prev=   12    0 )
 cg2d: Sum(rhs),rhsMax =   1.69318610687696E-07  8.73439699737069E+00
 cg2d: Sum(rhs),rhsMax =   1.69217777568065E-07  8.73957985685053E+00
 cg2d: Sum(rhs),rhsMax =   1.69116930237578E-07  8.74478996407667E+00
 cg2d: Sum(rhs),rhsMax =   1.69015713424869E-07  8.75002525197054E+00
 cg2d: Sum(rhs),rhsMax =   1.68913977915963E-07  8.75528319149979E+00
 cg2d: Sum(rhs),rhsMax =   7.70393718596551E-07  8.76056102563137E+00
 cg2d: Sum(rhs),rhsMax =  -1.61777258256279E-11  6.46373009885655E-02
 EXTERNAL_FIELDS_LOAD, it=   3600000 : Reading new data, i0,i1=   12    1 (prev=   12    1 )
 DIC_FIELDS_LOAD, it=   3600000 : Reading new data, i0,i1=   12    1 (prev=   12    0 )
 cg2d: Sum(rhs),rhsMax =   1.69318610687696E-07  8.73439699737069E+00
 cg2d: Sum(rhs),rhsMax =   1.69217777568065E-07  8.73957985685053E+00
 cg2d: Sum(rhs),rhsMax =   1.69116930237578E-07  8.74478996407667E+00
 cg2d: Sum(rhs),rhsMax =   1.69015713424869E-07  8.75002525197054E+00
 cg2d: Sum(rhs),rhsMax =  -7.49270682831593E-07  8.75528326636530E+00
 cg2d: Sum(rhs),rhsMax =  -1.64805946667457E-11  6.39241346670484E-02
 EXTERNAL_FIELDS_LOAD, it=   3600000 : Reading new data, i0,i1=   12    1 (prev=   12    1 )
 DIC_FIELDS_LOAD, it=   3600000 : Reading new data, i0,i1=   12    1 (prev=   12    0 )
 cg2d: Sum(rhs),rhsMax =   1.69318610687696E-07  8.73439699737069E+00
 cg2d: Sum(rhs),rhsMax =   1.69217777568065E-07  8.73957985685053E+00
 cg2d: Sum(rhs),rhsMax =   1.69116930237578E-07  8.74478996407667E+00
 cg2d: Sum(rhs),rhsMax =   1.99128180611297E-08  8.75002559007313E+00
 cg2d: Sum(rhs),rhsMax =  -1.68314251425272E-11  6.32874036132527E-02
 EXTERNAL_FIELDS_LOAD, it=   3600000 : Reading new data, i0,i1=   12    1 (prev=   12    1 )
 DIC_FIELDS_LOAD, it=   3600000 : Reading new data, i0,i1=   12    1 (prev=   12    0 )
 cg2d: Sum(rhs),rhsMax =   1.69318610687696E-07  8.73439699737069E+00
 cg2d: Sum(rhs),rhsMax =   1.69217777568065E-07  8.73957985685053E+00
 cg2d: Sum(rhs),rhsMax =   4.64190797799802E-07  8.74478995090024E+00
 cg2d: Sum(rhs),rhsMax =  -1.70552461042917E-11  6.26090161554953E-02
 EXTERNAL_FIELDS_LOAD, it=   3600000 : Reading new data, i0,i1=   12    1 (prev=   12    1 )
 DIC_FIELDS_LOAD, it=   3600000 : Reading new data, i0,i1=   12    1 (prev=   12    0 )
 cg2d: Sum(rhs),rhsMax =   1.69318610687696E-07  8.73439699737069E+00
 cg2d: Sum(rhs),rhsMax =   4.90807515518554E-07  8.73957995531855E+00
 cg2d: Sum(rhs),rhsMax =  -1.73101533107456E-11  6.22207566155692E-02
 EXTERNAL_FIELDS_LOAD, it=   3600000 : Reading new data, i0,i1=   12    1 (prev=   12    1 )
 DIC_FIELDS_LOAD, it=   3600000 : Reading new data, i0,i1=   12    1 (prev=   12    0 )
 cg2d: Sum(rhs),rhsMax =   1.69318511211713E-07  8.73439699714267E+00
 cg2d: Sum(rhs),rhsMax =  -1.65392144424459E-11  6.57272940713958E-02
 ph-pack: packing ecco_cost
 ph-pack: packing ecco_ctrl
(PID.TID 0000.0001)   Seconds in section "ALL                    [THE_MODEL_MAIN]":
(PID.TID 0000.0001)           User time: 3636.1799999999998
(PID.TID 0000.0001)         System time: 9.6500000000000004
(PID.TID 0000.0001)     Wall clock time: 3676.8763699531555
(PID.TID 0000.0001)          No. starts: 1
(PID.TID 0000.0001)           No. stops: 1
(PID.TID 0000.0001)   Seconds in section "INITIALISE_FIXED       [THE_MODEL_MAIN]":
(PID.TID 0000.0001)           User time: 0.67000000000000004
(PID.TID 0000.0001)         System time: 5.99999999999999978E-2
(PID.TID 0000.0001)     Wall clock time: 2.1641678810119629
(PID.TID 0000.0001)          No. starts: 1
(PID.TID 0000.0001)           No. stops: 1
(PID.TID 0000.0001)   Seconds in section "ADTHE_MAIN_LOOP          [ADJOINT RUN]":
(PID.TID 0000.0001)           User time: 3635.5100000000002
(PID.TID 0000.0001)         System time: 9.5899999999999999
(PID.TID 0000.0001)     Wall clock time: 3674.5696439743042
(PID.TID 0000.0001)          No. starts: 1
(PID.TID 0000.0001)           No. stops: 1
(PID.TID 0000.0001)   Seconds in section "FORWARD_STEP        [MAIN_DO_LOOP]":
(PID.TID 0000.0001)           User time: 3307.0300000026859
(PID.TID 0000.0001)         System time: 5.8599999999999284
(PID.TID 0000.0001)     Wall clock time: 3329.8103182315826
(PID.TID 0000.0001)          No. starts: 34625
(PID.TID 0000.0001)           No. stops: 34625
(PID.TID 0000.0001)   Seconds in section "LOAD_FIELDS_DRIVER  [FORWARD_STEP]":
(PID.TID 0000.0001)           User time: 21.640000000006694
(PID.TID 0000.0001)         System time: 3.9299999999999429
(PID.TID 0000.0001)     Wall clock time: 35.164751291275024
(PID.TID 0000.0001)          No. starts: 34625
(PID.TID 0000.0001)           No. stops: 34625
(PID.TID 0000.0001)   Seconds in section "EXTERNAL_FLDS_LOAD [LOAD_FLDS_DRIVER]":
(PID.TID 0000.0001)           User time: 11.030000000007931
(PID.TID 0000.0001)         System time: 2.6099999999999675
(PID.TID 0000.0001)     Wall clock time: 19.209562540054321
(PID.TID 0000.0001)          No. starts: 36085
(PID.TID 0000.0001)           No. stops: 36085
(PID.TID 0000.0001)   Seconds in section "CTRL_MAP_FORCING  [FORWARD_STEP]":
(PID.TID 0000.0001)           User time: 15.580000000004475
(PID.TID 0000.0001)         System time: 4.99999999999989342E-2
(PID.TID 0000.0001)     Wall clock time: 16.082244873046875
(PID.TID 0000.0001)          No. starts: 34625
(PID.TID 0000.0001)           No. stops: 34625
(PID.TID 0000.0001)   Seconds in section "DO_ATMOSPHERIC_PHYS [FORWARD_STEP]":
(PID.TID 0000.0001)           User time: 2.4599999999977626
(PID.TID 0000.0001)         System time: 0.
(PID.TID 0000.0001)     Wall clock time: 2.611609935760498
(PID.TID 0000.0001)          No. starts: 34625
(PID.TID 0000.0001)           No. stops: 34625
(PID.TID 0000.0001)   Seconds in section "DO_OCEANIC_PHYS     [FORWARD_STEP]":
(PID.TID 0000.0001)           User time: 498.69000000006781
(PID.TID 0000.0001)         System time: 0.50999999999999446
(PID.TID 0000.0001)     Wall clock time: 499.07235527038574
(PID.TID 0000.0001)          No. starts: 34625
(PID.TID 0000.0001)           No. stops: 34625
(PID.TID 0000.0001)   Seconds in section "KPP_CALC [DO_OCEANIC_PHYS]":
(PID.TID 0000.0001)           User time: 310.50000000001182
(PID.TID 0000.0001)         System time: 0.12999999999999723
(PID.TID 0000.0001)     Wall clock time: 310.87859630584717
(PID.TID 0000.0001)          No. starts: 35355
(PID.TID 0000.0001)           No. stops: 35355
(PID.TID 0000.0001)   Seconds in section "GCHEM_CALC_TENDENCY [FORWARD_STEP]":
(PID.TID 0000.0001)           User time: 0.26999999999952706
(PID.TID 0000.0001)         System time: 0.
(PID.TID 0000.0001)     Wall clock time: 0.29697084426879883
(PID.TID 0000.0001)          No. starts: 34625
(PID.TID 0000.0001)           No. stops: 34625
(PID.TID 0000.0001)   Seconds in section "DYNAMICS            [FORWARD_STEP]":
(PID.TID 0000.0001)           User time: 275.2100000000105
(PID.TID 0000.0001)         System time: 8.99999999999998579E-2
(PID.TID 0000.0001)     Wall clock time: 275.65113806724548
(PID.TID 0000.0001)          No. starts: 34625
(PID.TID 0000.0001)           No. stops: 34625
(PID.TID 0000.0001)   Seconds in section "SOLVE_FOR_PRESSURE  [FORWARD_STEP]":
(PID.TID 0000.0001)           User time: 65.339999999993324
(PID.TID 0000.0001)         System time: 2.99999999999993605E-2
(PID.TID 0000.0001)     Wall clock time: 65.274573564529419
(PID.TID 0000.0001)          No. starts: 34625
(PID.TID 0000.0001)           No. stops: 34625
(PID.TID 0000.0001)   Seconds in section "MOM_CORRECTION_STEP [FORWARD_STEP]":
(PID.TID 0000.0001)           User time: 9.120000000012169
(PID.TID 0000.0001)         System time: 0.
(PID.TID 0000.0001)     Wall clock time: 9.2158520221710205
(PID.TID 0000.0001)          No. starts: 34625
(PID.TID 0000.0001)           No. stops: 34625
(PID.TID 0000.0001)   Seconds in section "INTEGR_CONTINUITY   [FORWARD_STEP]":
(PID.TID 0000.0001)           User time: 5.6900000000041473
(PID.TID 0000.0001)         System time: 2.99999999999993605E-2
(PID.TID 0000.0001)     Wall clock time: 5.8204457759857178
(PID.TID 0000.0001)          No. starts: 34625
(PID.TID 0000.0001)           No. stops: 34625
(PID.TID 0000.0001)   Seconds in section "BLOCKING_EXCHANGES  [FORWARD_STEP]":
(PID.TID 0000.0001)           User time: 142.04999999999882
(PID.TID 0000.0001)         System time: 0.28999999999999204
(PID.TID 0000.0001)     Wall clock time: 142.98367071151733
(PID.TID 0000.0001)          No. starts: 69250
(PID.TID 0000.0001)           No. stops: 69250
(PID.TID 0000.0001)   Seconds in section "THERMODYNAMICS      [FORWARD_STEP]":
(PID.TID 0000.0001)           User time: 1724.2899999984215
(PID.TID 0000.0001)         System time: 0.29999999999999361
(PID.TID 0000.0001)     Wall clock time: 1725.8203272819519
(PID.TID 0000.0001)          No. starts: 34625
(PID.TID 0000.0001)           No. stops: 34625
(PID.TID 0000.0001)   Seconds in section "TRC_CORRECTION_STEP [FORWARD_STEP]":
(PID.TID 0000.0001)           User time: 0.24000000000023647
(PID.TID 0000.0001)         System time: 0.
(PID.TID 0000.0001)     Wall clock time: 0.30670785903930664
(PID.TID 0000.0001)          No. starts: 34625
(PID.TID 0000.0001)           No. stops: 34625
(PID.TID 0000.0001)   Seconds in section "GCHEM_FORCING_SEP  [FORWARD_STEP]":
(PID.TID 0000.0001)           User time: 81.980000000021846
(PID.TID 0000.0001)         System time: 6.00000000000004974E-2
(PID.TID 0000.0001)     Wall clock time: 81.242800235748291
(PID.TID 0000.0001)          No. starts: 34625
(PID.TID 0000.0001)           No. stops: 34625
(PID.TID 0000.0001)   Seconds in section "MONITOR             [FORWARD_STEP]":
(PID.TID 0000.0001)           User time: 0.40999999999894499
(PID.TID 0000.0001)         System time: 0.
(PID.TID 0000.0001)     Wall clock time: 0.38542962074279785
(PID.TID 0000.0001)          No. starts: 34625
(PID.TID 0000.0001)           No. stops: 34625
(PID.TID 0000.0001)   Seconds in section "COST_TILE           [FORWARD_STEP]":
(PID.TID 0000.0001)           User time: 0.30999999999994543
(PID.TID 0000.0001)         System time: 0.
(PID.TID 0000.0001)     Wall clock time: 0.30187797546386719
(PID.TID 0000.0001)          No. starts: 34625
(PID.TID 0000.0001)           No. stops: 34625
(PID.TID 0000.0001)   Seconds in section "DO_THE_MODEL_IO     [FORWARD_STEP]":
(PID.TID 0000.0001)           User time: 5.6600000000066757
(PID.TID 0000.0001)         System time: 0.38999999999998636
(PID.TID 0000.0001)     Wall clock time: 11.418427467346191
(PID.TID 0000.0001)          No. starts: 34625
(PID.TID 0000.0001)           No. stops: 34625
(PID.TID 0000.0001)   Seconds in section "PTRACERS_RESET      [FORWARD_STEP]":
(PID.TID 0000.0001)           User time: 0.30999999999903594
(PID.TID 0000.0001)         System time: 0.
(PID.TID 0000.0001)     Wall clock time: 0.31325912475585937
(PID.TID 0000.0001)          No. starts: 34625
(PID.TID 0000.0001)           No. stops: 34625
(PID.TID 0000.0001)   Seconds in section "DO_WRITE_PICKUP     [FORWARD_STEP]":
(PID.TID 0000.0001)           User time: 1.3700000000008004
(PID.TID 0000.0001)         System time: 2.99999999999993605E-2
(PID.TID 0000.0001)     Wall clock time: 1.4488801956176758
(PID.TID 0000.0001)          No. starts: 34625
(PID.TID 0000.0001)           No. stops: 34625
(PID.TID 0000.0001)   Seconds in section "COST_GENCOST_ALL    [ECCO SPIN-DOWN]":
(PID.TID 0000.0001)           User time: 3.00000000000011369E-2
(PID.TID 0000.0001)         System time: 0.
(PID.TID 0000.0001)     Wall clock time: 5.54788112640380859E-2
(PID.TID 0000.0001)          No. starts: 1
(PID.TID 0000.0001)           No. stops: 1
(PID.TID 0000.0001)   Seconds in section "CTRL_COST_DRIVER [ECCO SPIN-DOWN]":
(PID.TID 0000.0001)           User time: 0.
(PID.TID 0000.0001)         System time: 0.
(PID.TID 0000.0001)     Wall clock time: 1.811981201171875E-5
(PID.TID 0000.0001)          No. starts: 1
(PID.TID 0000.0001)           No. stops: 1
(PID.TID 0000.0001)   Seconds in section "I/O (WRITE)        [ADJOINT LOOP]":
(PID.TID 0000.0001)           User time: 5.2299999999995634
(PID.TID 0000.0001)         System time: 0.42999999999999972
(PID.TID 0000.0001)     Wall clock time: 9.3674626350402832
(PID.TID 0000.0001)          No. starts: 12
(PID.TID 0000.0001)           No. stops: 12
(PID.TID 0000.0001)   Seconds in section "CTRL_PACK           [THE_MODEL_MAIN]":
(PID.TID 0000.0001)           User time: 0.
(PID.TID 0000.0001)         System time: 0.
(PID.TID 0000.0001)     Wall clock time: 6.09669685363769531E-2
(PID.TID 0000.0001)          No. starts: 1
(PID.TID 0000.0001)           No. stops: 1
(PID.TID 0000.0001)   Seconds in section "CTRL_PACK     [THE_MODEL_MAIN]":
(PID.TID 0000.0001)           User time: 0.
(PID.TID 0000.0001)         System time: 0.
(PID.TID 0000.0001)     Wall clock time: 7.8907012939453125E-2
(PID.TID 0000.0001)          No. starts: 1
(PID.TID 0000.0001)           No. stops: 1
(PID.TID 0000.0001) // ======================================================
(PID.TID 0000.0001) // Tile <-> Tile communication statistics
(PID.TID 0000.0001) // ======================================================
(PID.TID 0000.0001) // o Tile number: 000001
(PID.TID 0000.0001) //         No. X exchanges =              0
(PID.TID 0000.0001) //            Max. X spins =              0
(PID.TID 0000.0001) //            Min. X spins =     1000000000
(PID.TID 0000.0001) //          Total. X spins =              0
(PID.TID 0000.0001) //            Avg. X spins =       0.00E+00
(PID.TID 0000.0001) //         No. Y exchanges =              0
(PID.TID 0000.0001) //            Max. Y spins =              0
(PID.TID 0000.0001) //            Min. Y spins =     1000000000
(PID.TID 0000.0001) //          Total. Y spins =              0
(PID.TID 0000.0001) //            Avg. Y spins =       0.00E+00
(PID.TID 0000.0001) // o Thread number: 000001
(PID.TID 0000.0001) //            No. barriers =        5410402
(PID.TID 0000.0001) //      Max. barrier spins =              1
(PID.TID 0000.0001) //      Min. barrier spins =              1
(PID.TID 0000.0001) //     Total barrier spins =        5410402
(PID.TID 0000.0001) //      Avg. barrier spins =       1.00E+00
PROGRAM MAIN: Execution ended Normally
